$WAVEWATCH III LOCAL OBSTRUCTIONS
125
$ ilon ilat of the cell. lon: -98.25, 16.25
55   58
$ sizes of the cell in km
   160.251      178.533      200.631      231.301      204.684      184.826      166.792      184.826      204.684      231.301      200.631      178.533      160.251      178.533      200.631      231.301      204.684      184.826      166.792      184.826      204.684      231.301      200.631      178.533      160.251
$ mean alpha: 0.207999979655
$ mean beta: 0.326068569245
$alpha by ik, ith
0.30  0.25  0.20  0.16  0.10  0.05  0.00  0.12  0.24  0.36  0.34  0.32  0.30  0.25  0.20  0.16  0.10  0.05  0.00  0.12  0.24  0.36  0.34  0.32  0.30
0.30  0.25  0.20  0.16  0.10  0.05  0.00  0.12  0.24  0.36  0.34  0.32  0.30  0.25  0.20  0.16  0.10  0.05  0.00  0.12  0.24  0.36  0.34  0.32  0.30
0.30  0.25  0.20  0.16  0.10  0.05  0.00  0.12  0.24  0.36  0.34  0.32  0.30  0.25  0.20  0.16  0.10  0.05  0.00  0.12  0.24  0.36  0.34  0.32  0.30
0.30  0.25  0.20  0.16  0.10  0.05  0.00  0.12  0.24  0.36  0.34  0.32  0.30  0.25  0.20  0.16  0.10  0.05  0.00  0.12  0.24  0.36  0.34  0.32  0.30
0.30  0.25  0.20  0.16  0.10  0.05  0.00  0.12  0.24  0.36  0.34  0.32  0.30  0.25  0.20  0.16  0.10  0.05  0.00  0.12  0.24  0.36  0.34  0.32  0.30
0.30  0.25  0.20  0.16  0.10  0.05  0.00  0.12  0.24  0.36  0.34  0.32  0.30  0.25  0.20  0.16  0.10  0.05  0.00  0.12  0.24  0.36  0.34  0.32  0.30
0.30  0.25  0.20  0.16  0.10  0.05  0.00  0.12  0.24  0.36  0.34  0.32  0.30  0.25  0.20  0.16  0.10  0.05  0.00  0.12  0.24  0.36  0.34  0.32  0.30
0.30  0.25  0.20  0.16  0.10  0.05  0.00  0.12  0.24  0.36  0.34  0.32  0.30  0.25  0.20  0.16  0.10  0.05  0.00  0.12  0.24  0.36  0.34  0.32  0.30
0.30  0.25  0.20  0.16  0.10  0.05  0.00  0.12  0.24  0.36  0.34  0.32  0.30  0.25  0.20  0.16  0.10  0.05  0.00  0.12  0.24  0.36  0.34  0.32  0.30
0.30  0.25  0.20  0.16  0.10  0.05  0.00  0.12  0.24  0.36  0.34  0.32  0.30  0.25  0.20  0.16  0.10  0.05  0.00  0.12  0.24  0.36  0.34  0.32  0.30
0.30  0.25  0.20  0.16  0.10  0.05  0.00  0.12  0.24  0.36  0.34  0.32  0.30  0.25  0.20  0.16  0.10  0.05  0.00  0.12  0.24  0.36  0.34  0.32  0.30
0.30  0.25  0.20  0.16  0.10  0.05  0.00  0.12  0.24  0.36  0.34  0.32  0.30  0.25  0.20  0.16  0.10  0.05  0.00  0.12  0.24  0.36  0.34  0.32  0.30
0.30  0.25  0.20  0.16  0.10  0.05  0.00  0.12  0.24  0.36  0.34  0.32  0.30  0.25  0.20  0.16  0.10  0.05  0.00  0.12  0.24  0.36  0.34  0.32  0.30
0.30  0.25  0.20  0.16  0.10  0.05  0.00  0.12  0.24  0.36  0.34  0.32  0.30  0.25  0.20  0.16  0.10  0.05  0.00  0.12  0.24  0.36  0.34  0.32  0.30
0.30  0.25  0.20  0.16  0.10  0.05  0.00  0.12  0.24  0.36  0.34  0.32  0.30  0.25  0.20  0.16  0.10  0.05  0.00  0.12  0.24  0.36  0.34  0.32  0.30
0.30  0.25  0.20  0.16  0.10  0.05  0.00  0.12  0.24  0.36  0.34  0.32  0.30  0.25  0.20  0.16  0.10  0.05  0.00  0.12  0.24  0.36  0.34  0.32  0.30
0.30  0.25  0.20  0.16  0.10  0.05  0.00  0.12  0.24  0.36  0.34  0.32  0.30  0.25  0.20  0.16  0.10  0.05  0.00  0.12  0.24  0.36  0.34  0.32  0.30
0.30  0.25  0.20  0.16  0.10  0.05  0.00  0.12  0.24  0.36  0.34  0.32  0.30  0.25  0.20  0.16  0.10  0.05  0.00  0.12  0.24  0.36  0.34  0.32  0.30
0.30  0.25  0.20  0.16  0.10  0.05  0.00  0.12  0.24  0.36  0.34  0.32  0.30  0.25  0.20  0.16  0.10  0.05  0.00  0.12  0.24  0.36  0.34  0.32  0.30
0.30  0.25  0.20  0.16  0.10  0.05  0.00  0.12  0.24  0.36  0.34  0.32  0.30  0.25  0.20  0.16  0.10  0.05  0.00  0.12  0.24  0.36  0.34  0.32  0.30
0.30  0.25  0.20  0.16  0.10  0.05  0.00  0.12  0.24  0.36  0.34  0.32  0.30  0.25  0.20  0.16  0.10  0.05  0.00  0.12  0.24  0.36  0.34  0.32  0.30
0.30  0.25  0.20  0.16  0.10  0.05  0.00  0.12  0.24  0.36  0.34  0.32  0.30  0.25  0.20  0.16  0.10  0.05  0.00  0.12  0.24  0.36  0.34  0.32  0.30
0.30  0.25  0.20  0.16  0.10  0.05  0.00  0.12  0.24  0.36  0.34  0.32  0.30  0.25  0.20  0.16  0.10  0.05  0.00  0.12  0.24  0.36  0.34  0.32  0.30
0.30  0.25  0.20  0.16  0.10  0.05  0.00  0.12  0.24  0.36  0.34  0.32  0.30  0.25  0.20  0.16  0.10  0.05  0.00  0.12  0.24  0.36  0.34  0.32  0.30
0.30  0.25  0.20  0.16  0.10  0.05  0.00  0.12  0.24  0.36  0.34  0.32  0.30  0.25  0.20  0.16  0.10  0.05  0.00  0.12  0.24  0.36  0.34  0.32  0.30
$beta by ik, ith
0.47  0.46  0.44  0.42  0.43  0.43  0.44  0.45  0.47  0.48  0.42  0.36  0.30  0.24  0.18  0.12  0.08  0.04  0.00  0.11  0.22  0.33  0.38  0.42  0.47
0.47  0.46  0.44  0.42  0.43  0.43  0.44  0.45  0.47  0.48  0.42  0.36  0.30  0.24  0.18  0.12  0.08  0.04  0.00  0.11  0.22  0.33  0.38  0.42  0.47
0.47  0.46  0.44  0.42  0.43  0.43  0.44  0.45  0.47  0.48  0.42  0.36  0.30  0.24  0.18  0.12  0.08  0.04  0.00  0.11  0.22  0.33  0.38  0.42  0.47
0.47  0.46  0.44  0.42  0.43  0.43  0.44  0.45  0.47  0.48  0.42  0.36  0.30  0.24  0.18  0.12  0.08  0.04  0.00  0.11  0.22  0.33  0.38  0.42  0.47
0.47  0.46  0.44  0.42  0.43  0.43  0.44  0.45  0.47  0.48  0.42  0.36  0.30  0.24  0.18  0.12  0.08  0.04  0.00  0.11  0.22  0.33  0.38  0.42  0.47
0.47  0.46  0.44  0.42  0.43  0.43  0.44  0.45  0.47  0.48  0.42  0.36  0.30  0.24  0.18  0.12  0.08  0.04  0.00  0.11  0.22  0.33  0.38  0.42  0.47
0.47  0.46  0.44  0.42  0.43  0.43  0.44  0.45  0.47  0.48  0.42  0.36  0.30  0.24  0.18  0.12  0.08  0.04  0.00  0.11  0.22  0.33  0.38  0.42  0.47
0.47  0.46  0.44  0.42  0.43  0.43  0.44  0.45  0.47  0.48  0.42  0.36  0.30  0.24  0.18  0.12  0.08  0.04  0.00  0.11  0.22  0.33  0.38  0.42  0.47
0.47  0.46  0.44  0.42  0.43  0.43  0.44  0.45  0.47  0.48  0.42  0.36  0.30  0.24  0.18  0.12  0.08  0.04  0.00  0.11  0.22  0.33  0.38  0.42  0.47
0.47  0.46  0.44  0.42  0.43  0.43  0.44  0.45  0.47  0.48  0.42  0.36  0.30  0.24  0.18  0.12  0.08  0.04  0.00  0.11  0.22  0.33  0.38  0.42  0.47
0.47  0.46  0.44  0.42  0.43  0.43  0.44  0.45  0.47  0.48  0.42  0.36  0.30  0.24  0.18  0.12  0.08  0.04  0.00  0.11  0.22  0.33  0.38  0.42  0.47
0.47  0.46  0.44  0.42  0.43  0.43  0.44  0.45  0.47  0.48  0.42  0.36  0.30  0.24  0.18  0.12  0.08  0.04  0.00  0.11  0.22  0.33  0.38  0.42  0.47
0.47  0.46  0.44  0.42  0.43  0.43  0.44  0.45  0.47  0.48  0.42  0.36  0.30  0.24  0.18  0.12  0.08  0.04  0.00  0.11  0.22  0.33  0.38  0.42  0.47
0.47  0.46  0.44  0.42  0.43  0.43  0.44  0.45  0.47  0.48  0.42  0.36  0.30  0.24  0.18  0.12  0.08  0.04  0.00  0.11  0.22  0.33  0.38  0.42  0.47
0.47  0.46  0.44  0.42  0.43  0.43  0.44  0.45  0.47  0.48  0.42  0.36  0.30  0.24  0.18  0.12  0.08  0.04  0.00  0.11  0.22  0.33  0.38  0.42  0.47
0.47  0.46  0.44  0.42  0.43  0.43  0.44  0.45  0.47  0.48  0.42  0.36  0.30  0.24  0.18  0.12  0.08  0.04  0.00  0.11  0.22  0.33  0.38  0.42  0.47
0.47  0.46  0.44  0.42  0.43  0.43  0.44  0.45  0.47  0.48  0.42  0.36  0.30  0.24  0.18  0.12  0.08  0.04  0.00  0.11  0.22  0.33  0.38  0.42  0.47
0.47  0.46  0.44  0.42  0.43  0.43  0.44  0.45  0.47  0.48  0.42  0.36  0.30  0.24  0.18  0.12  0.08  0.04  0.00  0.11  0.22  0.33  0.38  0.42  0.47
0.47  0.46  0.44  0.42  0.43  0.43  0.44  0.45  0.47  0.48  0.42  0.36  0.30  0.24  0.18  0.12  0.08  0.04  0.00  0.11  0.22  0.33  0.38  0.42  0.47
0.47  0.46  0.44  0.42  0.43  0.43  0.44  0.45  0.47  0.48  0.42  0.36  0.30  0.24  0.18  0.12  0.08  0.04  0.00  0.11  0.22  0.33  0.38  0.42  0.47
0.47  0.46  0.44  0.42  0.43  0.43  0.44  0.45  0.47  0.48  0.42  0.36  0.30  0.24  0.18  0.12  0.08  0.04  0.00  0.11  0.22  0.33  0.38  0.42  0.47
0.47  0.46  0.44  0.42  0.43  0.43  0.44  0.45  0.47  0.48  0.42  0.36  0.30  0.24  0.18  0.12  0.08  0.04  0.00  0.11  0.22  0.33  0.38  0.42  0.47
0.47  0.46  0.44  0.42  0.43  0.43  0.44  0.45  0.47  0.48  0.42  0.36  0.30  0.24  0.18  0.12  0.08  0.04  0.00  0.11  0.22  0.33  0.38  0.42  0.47
0.47  0.46  0.44  0.42  0.43  0.43  0.44  0.45  0.47  0.48  0.42  0.36  0.30  0.24  0.18  0.12  0.08  0.04  0.00  0.11  0.22  0.33  0.38  0.42  0.47
0.47  0.46  0.44  0.42  0.43  0.43  0.44  0.45  0.47  0.48  0.42  0.36  0.30  0.24  0.18  0.12  0.08  0.04  0.00  0.11  0.22  0.33  0.38  0.42  0.47
$ ilon ilat of the cell. lon: -96.75, 22.25
56   62
$ sizes of the cell in km
   154.538      172.635      195.402      227.380      202.990      184.424      166.792      184.424      202.990      227.380      195.402      172.635      154.538      172.635      195.402      227.380      202.990      184.424      166.792      184.424      202.990      227.380      195.402      172.635      154.538
$ mean alpha: 0.876444234212
$ mean beta: 0.919352583245
$alpha by ik, ith
0.84  0.85  0.86  0.86  0.87  0.87  0.88  0.89  0.91  0.93  0.90  0.87  0.84  0.85  0.86  0.86  0.87  0.87  0.88  0.89  0.91  0.93  0.90  0.87  0.84
0.84  0.85  0.86  0.86  0.87  0.87  0.88  0.89  0.91  0.93  0.90  0.87  0.84  0.85  0.86  0.86  0.87  0.87  0.88  0.89  0.91  0.93  0.90  0.87  0.84
0.84  0.85  0.86  0.86  0.87  0.87  0.88  0.89  0.91  0.93  0.90  0.87  0.84  0.85  0.86  0.86  0.87  0.87  0.88  0.89  0.91  0.93  0.90  0.87  0.84
0.84  0.85  0.86  0.86  0.87  0.87  0.88  0.89  0.91  0.93  0.90  0.87  0.84  0.85  0.86  0.86  0.87  0.87  0.88  0.89  0.91  0.93  0.90  0.87  0.84
0.84  0.85  0.86  0.86  0.87  0.87  0.88  0.89  0.91  0.93  0.90  0.87  0.84  0.85  0.86  0.86  0.87  0.87  0.88  0.89  0.91  0.93  0.90  0.87  0.84
0.84  0.85  0.86  0.86  0.87  0.87  0.88  0.89  0.91  0.93  0.90  0.87  0.84  0.85  0.86  0.86  0.87  0.87  0.88  0.89  0.91  0.93  0.90  0.87  0.84
0.84  0.85  0.86  0.86  0.87  0.87  0.88  0.89  0.91  0.93  0.90  0.87  0.84  0.85  0.86  0.86  0.87  0.87  0.88  0.89  0.91  0.93  0.90  0.87  0.84
0.84  0.85  0.86  0.86  0.87  0.87  0.88  0.89  0.91  0.93  0.90  0.87  0.84  0.85  0.86  0.86  0.87  0.87  0.88  0.89  0.91  0.93  0.90  0.87  0.84
0.84  0.85  0.86  0.86  0.87  0.87  0.88  0.89  0.91  0.93  0.90  0.87  0.84  0.85  0.86  0.86  0.87  0.87  0.88  0.89  0.91  0.93  0.90  0.87  0.84
0.84  0.85  0.86  0.86  0.87  0.87  0.88  0.89  0.91  0.93  0.90  0.87  0.84  0.85  0.86  0.86  0.87  0.87  0.88  0.89  0.91  0.93  0.90  0.87  0.84
0.84  0.85  0.86  0.86  0.87  0.87  0.88  0.89  0.91  0.93  0.90  0.87  0.84  0.85  0.86  0.86  0.87  0.87  0.88  0.89  0.91  0.93  0.90  0.87  0.84
0.84  0.85  0.86  0.86  0.87  0.87  0.88  0.89  0.91  0.93  0.90  0.87  0.84  0.85  0.86  0.86  0.87  0.87  0.88  0.89  0.91  0.93  0.90  0.87  0.84
0.84  0.85  0.86  0.86  0.87  0.87  0.88  0.89  0.91  0.93  0.90  0.87  0.84  0.85  0.86  0.86  0.87  0.87  0.88  0.89  0.91  0.93  0.90  0.87  0.84
0.84  0.85  0.86  0.86  0.87  0.87  0.88  0.89  0.91  0.93  0.90  0.87  0.84  0.85  0.86  0.86  0.87  0.87  0.88  0.89  0.91  0.93  0.90  0.87  0.84
0.84  0.85  0.86  0.86  0.87  0.87  0.88  0.89  0.91  0.93  0.90  0.87  0.84  0.85  0.86  0.86  0.87  0.87  0.88  0.89  0.91  0.93  0.90  0.87  0.84
0.84  0.85  0.86  0.86  0.87  0.87  0.88  0.89  0.91  0.93  0.90  0.87  0.84  0.85  0.86  0.86  0.87  0.87  0.88  0.89  0.91  0.93  0.90  0.87  0.84
0.84  0.85  0.86  0.86  0.87  0.87  0.88  0.89  0.91  0.93  0.90  0.87  0.84  0.85  0.86  0.86  0.87  0.87  0.88  0.89  0.91  0.93  0.90  0.87  0.84
0.84  0.85  0.86  0.86  0.87  0.87  0.88  0.89  0.91  0.93  0.90  0.87  0.84  0.85  0.86  0.86  0.87  0.87  0.88  0.89  0.91  0.93  0.90  0.87  0.84
0.84  0.85  0.86  0.86  0.87  0.87  0.88  0.89  0.91  0.93  0.90  0.87  0.84  0.85  0.86  0.86  0.87  0.87  0.88  0.89  0.91  0.93  0.90  0.87  0.84
0.84  0.85  0.86  0.86  0.87  0.87  0.88  0.89  0.91  0.93  0.90  0.87  0.84  0.85  0.86  0.86  0.87  0.87  0.88  0.89  0.91  0.93  0.90  0.87  0.84
0.84  0.85  0.86  0.86  0.87  0.87  0.88  0.89  0.91  0.93  0.90  0.87  0.84  0.85  0.86  0.86  0.87  0.87  0.88  0.89  0.91  0.93  0.90  0.87  0.84
0.84  0.85  0.86  0.86  0.87  0.87  0.88  0.89  0.91  0.93  0.90  0.87  0.84  0.85  0.86  0.86  0.87  0.87  0.88  0.89  0.91  0.93  0.90  0.87  0.84
0.84  0.85  0.86  0.86  0.87  0.87  0.88  0.89  0.91  0.93  0.90  0.87  0.84  0.85  0.86  0.86  0.87  0.87  0.88  0.89  0.91  0.93  0.90  0.87  0.84
0.84  0.85  0.86  0.86  0.87  0.87  0.88  0.89  0.91  0.93  0.90  0.87  0.84  0.85  0.86  0.86  0.87  0.87  0.88  0.89  0.91  0.93  0.90  0.87  0.84
0.84  0.85  0.86  0.86  0.87  0.87  0.88  0.89  0.91  0.93  0.90  0.87  0.84  0.85  0.86  0.86  0.87  0.87  0.88  0.89  0.91  0.93  0.90  0.87  0.84
$beta by ik, ith
0.84  0.84  0.83  0.82  0.84  0.86  0.88  0.90  0.93  0.95  0.96  0.97  0.98  0.98  0.98  0.98  0.98  0.98  0.98  0.97  0.96  0.95  0.91  0.88  0.84
0.84  0.84  0.83  0.82  0.84  0.86  0.88  0.90  0.93  0.95  0.96  0.97  0.98  0.98  0.98  0.98  0.98  0.98  0.98  0.97  0.96  0.95  0.91  0.88  0.84
0.84  0.84  0.83  0.82  0.84  0.86  0.88  0.90  0.93  0.95  0.96  0.97  0.98  0.98  0.98  0.98  0.98  0.98  0.98  0.97  0.96  0.95  0.91  0.88  0.84
0.84  0.84  0.83  0.82  0.84  0.86  0.88  0.90  0.93  0.95  0.96  0.97  0.98  0.98  0.98  0.98  0.98  0.98  0.98  0.97  0.96  0.95  0.91  0.88  0.84
0.84  0.84  0.83  0.82  0.84  0.86  0.88  0.90  0.93  0.95  0.96  0.97  0.98  0.98  0.98  0.98  0.98  0.98  0.98  0.97  0.96  0.95  0.91  0.88  0.84
0.84  0.84  0.83  0.82  0.84  0.86  0.88  0.90  0.93  0.95  0.96  0.97  0.98  0.98  0.98  0.98  0.98  0.98  0.98  0.97  0.96  0.95  0.91  0.88  0.84
0.84  0.84  0.83  0.82  0.84  0.86  0.88  0.90  0.93  0.95  0.96  0.97  0.98  0.98  0.98  0.98  0.98  0.98  0.98  0.97  0.96  0.95  0.91  0.88  0.84
0.84  0.84  0.83  0.82  0.84  0.86  0.88  0.90  0.93  0.95  0.96  0.97  0.98  0.98  0.98  0.98  0.98  0.98  0.98  0.97  0.96  0.95  0.91  0.88  0.84
0.84  0.84  0.83  0.82  0.84  0.86  0.88  0.90  0.93  0.95  0.96  0.97  0.98  0.98  0.98  0.98  0.98  0.98  0.98  0.97  0.96  0.95  0.91  0.88  0.84
0.84  0.84  0.83  0.82  0.84  0.86  0.88  0.90  0.93  0.95  0.96  0.97  0.98  0.98  0.98  0.98  0.98  0.98  0.98  0.97  0.96  0.95  0.91  0.88  0.84
0.84  0.84  0.83  0.82  0.84  0.86  0.88  0.90  0.93  0.95  0.96  0.97  0.98  0.98  0.98  0.98  0.98  0.98  0.98  0.97  0.96  0.95  0.91  0.88  0.84
0.84  0.84  0.83  0.82  0.84  0.86  0.88  0.90  0.93  0.95  0.96  0.97  0.98  0.98  0.98  0.98  0.98  0.98  0.98  0.97  0.96  0.95  0.91  0.88  0.84
0.84  0.84  0.83  0.82  0.84  0.86  0.88  0.90  0.93  0.95  0.96  0.97  0.98  0.98  0.98  0.98  0.98  0.98  0.98  0.97  0.96  0.95  0.91  0.88  0.84
0.84  0.84  0.83  0.82  0.84  0.86  0.88  0.90  0.93  0.95  0.96  0.97  0.98  0.98  0.98  0.98  0.98  0.98  0.98  0.97  0.96  0.95  0.91  0.88  0.84
0.84  0.84  0.83  0.82  0.84  0.86  0.88  0.90  0.93  0.95  0.96  0.97  0.98  0.98  0.98  0.98  0.98  0.98  0.98  0.97  0.96  0.95  0.91  0.88  0.84
0.84  0.84  0.83  0.82  0.84  0.86  0.88  0.90  0.93  0.95  0.96  0.97  0.98  0.98  0.98  0.98  0.98  0.98  0.98  0.97  0.96  0.95  0.91  0.88  0.84
0.84  0.84  0.83  0.82  0.84  0.86  0.88  0.90  0.93  0.95  0.96  0.97  0.98  0.98  0.98  0.98  0.98  0.98  0.98  0.97  0.96  0.95  0.91  0.88  0.84
0.84  0.84  0.83  0.82  0.84  0.86  0.88  0.90  0.93  0.95  0.96  0.97  0.98  0.98  0.98  0.98  0.98  0.98  0.98  0.97  0.96  0.95  0.91  0.88  0.84
0.84  0.84  0.83  0.82  0.84  0.86  0.88  0.90  0.93  0.95  0.96  0.97  0.98  0.98  0.98  0.98  0.98  0.98  0.98  0.97  0.96  0.95  0.91  0.88  0.84
0.84  0.84  0.83  0.82  0.84  0.86  0.88  0.90  0.93  0.95  0.96  0.97  0.98  0.98  0.98  0.98  0.98  0.98  0.98  0.97  0.96  0.95  0.91  0.88  0.84
0.84  0.84  0.83  0.82  0.84  0.86  0.88  0.90  0.93  0.95  0.96  0.97  0.98  0.98  0.98  0.98  0.98  0.98  0.98  0.97  0.96  0.95  0.91  0.88  0.84
0.84  0.84  0.83  0.82  0.84  0.86  0.88  0.90  0.93  0.95  0.96  0.97  0.98  0.98  0.98  0.98  0.98  0.98  0.98  0.97  0.96  0.95  0.91  0.88  0.84
0.84  0.84  0.83  0.82  0.84  0.86  0.88  0.90  0.93  0.95  0.96  0.97  0.98  0.98  0.98  0.98  0.98  0.98  0.98  0.97  0.96  0.95  0.91  0.88  0.84
0.84  0.84  0.83  0.82  0.84  0.86  0.88  0.90  0.93  0.95  0.96  0.97  0.98  0.98  0.98  0.98  0.98  0.98  0.98  0.97  0.96  0.95  0.91  0.88  0.84
0.84  0.84  0.83  0.82  0.84  0.86  0.88  0.90  0.93  0.95  0.96  0.97  0.98  0.98  0.98  0.98  0.98  0.98  0.98  0.97  0.96  0.95  0.91  0.88  0.84
$ ilon ilat of the cell. lon: -96.75, 25.25
56   64
$ sizes of the cell in km
   151.042      169.035      192.228      225.019      201.978      184.184      166.792      184.184      201.978      225.019      192.228      169.035      151.042      169.035      192.228      225.019      201.978      184.184      166.792      184.184      201.978      225.019      192.228      169.035      151.042
$ mean alpha: 0.594222422282
$ mean beta: 0.709653691231
$alpha by ik, ith
0.39  0.49  0.59  0.69  0.71  0.73  0.76  0.70  0.64  0.58  0.51  0.45  0.39  0.49  0.59  0.69  0.71  0.73  0.76  0.70  0.64  0.58  0.51  0.45  0.39
0.39  0.49  0.59  0.69  0.71  0.73  0.76  0.70  0.64  0.58  0.51  0.45  0.39  0.49  0.59  0.69  0.71  0.73  0.76  0.70  0.64  0.58  0.51  0.45  0.39
0.39  0.49  0.59  0.69  0.71  0.73  0.76  0.70  0.64  0.58  0.51  0.45  0.39  0.49  0.59  0.69  0.71  0.73  0.76  0.70  0.64  0.58  0.51  0.45  0.39
0.39  0.49  0.59  0.69  0.71  0.73  0.76  0.70  0.64  0.58  0.51  0.45  0.39  0.49  0.59  0.69  0.71  0.73  0.76  0.70  0.64  0.58  0.51  0.45  0.39
0.39  0.49  0.59  0.69  0.71  0.73  0.76  0.70  0.64  0.58  0.51  0.45  0.39  0.49  0.59  0.69  0.71  0.73  0.76  0.70  0.64  0.58  0.51  0.45  0.39
0.39  0.49  0.59  0.69  0.71  0.73  0.76  0.70  0.64  0.58  0.51  0.45  0.39  0.49  0.59  0.69  0.71  0.73  0.76  0.70  0.64  0.58  0.51  0.45  0.39
0.39  0.49  0.59  0.69  0.71  0.73  0.76  0.70  0.64  0.58  0.51  0.45  0.39  0.49  0.59  0.69  0.71  0.73  0.76  0.70  0.64  0.58  0.51  0.45  0.39
0.39  0.49  0.59  0.69  0.71  0.73  0.76  0.70  0.64  0.58  0.51  0.45  0.39  0.49  0.59  0.69  0.71  0.73  0.76  0.70  0.64  0.58  0.51  0.45  0.39
0.39  0.49  0.59  0.69  0.71  0.73  0.76  0.70  0.64  0.58  0.51  0.45  0.39  0.49  0.59  0.69  0.71  0.73  0.76  0.70  0.64  0.58  0.51  0.45  0.39
0.39  0.49  0.59  0.69  0.71  0.73  0.76  0.70  0.64  0.58  0.51  0.45  0.39  0.49  0.59  0.69  0.71  0.73  0.76  0.70  0.64  0.58  0.51  0.45  0.39
0.39  0.49  0.59  0.69  0.71  0.73  0.76  0.70  0.64  0.58  0.51  0.45  0.39  0.49  0.59  0.69  0.71  0.73  0.76  0.70  0.64  0.58  0.51  0.45  0.39
0.39  0.49  0.59  0.69  0.71  0.73  0.76  0.70  0.64  0.58  0.51  0.45  0.39  0.49  0.59  0.69  0.71  0.73  0.76  0.70  0.64  0.58  0.51  0.45  0.39
0.39  0.49  0.59  0.69  0.71  0.73  0.76  0.70  0.64  0.58  0.51  0.45  0.39  0.49  0.59  0.69  0.71  0.73  0.76  0.70  0.64  0.58  0.51  0.45  0.39
0.39  0.49  0.59  0.69  0.71  0.73  0.76  0.70  0.64  0.58  0.51  0.45  0.39  0.49  0.59  0.69  0.71  0.73  0.76  0.70  0.64  0.58  0.51  0.45  0.39
0.39  0.49  0.59  0.69  0.71  0.73  0.76  0.70  0.64  0.58  0.51  0.45  0.39  0.49  0.59  0.69  0.71  0.73  0.76  0.70  0.64  0.58  0.51  0.45  0.39
0.39  0.49  0.59  0.69  0.71  0.73  0.76  0.70  0.64  0.58  0.51  0.45  0.39  0.49  0.59  0.69  0.71  0.73  0.76  0.70  0.64  0.58  0.51  0.45  0.39
0.39  0.49  0.59  0.69  0.71  0.73  0.76  0.70  0.64  0.58  0.51  0.45  0.39  0.49  0.59  0.69  0.71  0.73  0.76  0.70  0.64  0.58  0.51  0.45  0.39
0.39  0.49  0.59  0.69  0.71  0.73  0.76  0.70  0.64  0.58  0.51  0.45  0.39  0.49  0.59  0.69  0.71  0.73  0.76  0.70  0.64  0.58  0.51  0.45  0.39
0.39  0.49  0.59  0.69  0.71  0.73  0.76  0.70  0.64  0.58  0.51  0.45  0.39  0.49  0.59  0.69  0.71  0.73  0.76  0.70  0.64  0.58  0.51  0.45  0.39
0.39  0.49  0.59  0.69  0.71  0.73  0.76  0.70  0.64  0.58  0.51  0.45  0.39  0.49  0.59  0.69  0.71  0.73  0.76  0.70  0.64  0.58  0.51  0.45  0.39
0.39  0.49  0.59  0.69  0.71  0.73  0.76  0.70  0.64  0.58  0.51  0.45  0.39  0.49  0.59  0.69  0.71  0.73  0.76  0.70  0.64  0.58  0.51  0.45  0.39
0.39  0.49  0.59  0.69  0.71  0.73  0.76  0.70  0.64  0.58  0.51  0.45  0.39  0.49  0.59  0.69  0.71  0.73  0.76  0.70  0.64  0.58  0.51  0.45  0.39
0.39  0.49  0.59  0.69  0.71  0.73  0.76  0.70  0.64  0.58  0.51  0.45  0.39  0.49  0.59  0.69  0.71  0.73  0.76  0.70  0.64  0.58  0.51  0.45  0.39
0.39  0.49  0.59  0.69  0.71  0.73  0.76  0.70  0.64  0.58  0.51  0.45  0.39  0.49  0.59  0.69  0.71  0.73  0.76  0.70  0.64  0.58  0.51  0.45  0.39
0.39  0.49  0.59  0.69  0.71  0.73  0.76  0.70  0.64  0.58  0.51  0.45  0.39  0.49  0.59  0.69  0.71  0.73  0.76  0.70  0.64  0.58  0.51  0.45  0.39
$beta by ik, ith
0.39  0.50  0.62  0.73  0.79  0.84  0.90  0.88  0.87  0.85  0.86  0.86  0.86  0.84  0.82  0.80  0.78  0.77  0.76  0.67  0.59  0.50  0.46  0.43  0.39
0.39  0.50  0.62  0.73  0.79  0.84  0.90  0.88  0.87  0.85  0.86  0.86  0.86  0.84  0.82  0.80  0.78  0.77  0.76  0.67  0.59  0.50  0.46  0.43  0.39
0.39  0.50  0.62  0.73  0.79  0.84  0.90  0.88  0.87  0.85  0.86  0.86  0.86  0.84  0.82  0.80  0.78  0.77  0.76  0.67  0.59  0.50  0.46  0.43  0.39
0.39  0.50  0.62  0.73  0.79  0.84  0.90  0.88  0.87  0.85  0.86  0.86  0.86  0.84  0.82  0.80  0.78  0.77  0.76  0.67  0.59  0.50  0.46  0.43  0.39
0.39  0.50  0.62  0.73  0.79  0.84  0.90  0.88  0.87  0.85  0.86  0.86  0.86  0.84  0.82  0.80  0.78  0.77  0.76  0.67  0.59  0.50  0.46  0.43  0.39
0.39  0.50  0.62  0.73  0.79  0.84  0.90  0.88  0.87  0.85  0.86  0.86  0.86  0.84  0.82  0.80  0.78  0.77  0.76  0.67  0.59  0.50  0.46  0.43  0.39
0.39  0.50  0.62  0.73  0.79  0.84  0.90  0.88  0.87  0.85  0.86  0.86  0.86  0.84  0.82  0.80  0.78  0.77  0.76  0.67  0.59  0.50  0.46  0.43  0.39
0.39  0.50  0.62  0.73  0.79  0.84  0.90  0.88  0.87  0.85  0.86  0.86  0.86  0.84  0.82  0.80  0.78  0.77  0.76  0.67  0.59  0.50  0.46  0.43  0.39
0.39  0.50  0.62  0.73  0.79  0.84  0.90  0.88  0.87  0.85  0.86  0.86  0.86  0.84  0.82  0.80  0.78  0.77  0.76  0.67  0.59  0.50  0.46  0.43  0.39
0.39  0.50  0.62  0.73  0.79  0.84  0.90  0.88  0.87  0.85  0.86  0.86  0.86  0.84  0.82  0.80  0.78  0.77  0.76  0.67  0.59  0.50  0.46  0.43  0.39
0.39  0.50  0.62  0.73  0.79  0.84  0.90  0.88  0.87  0.85  0.86  0.86  0.86  0.84  0.82  0.80  0.78  0.77  0.76  0.67  0.59  0.50  0.46  0.43  0.39
0.39  0.50  0.62  0.73  0.79  0.84  0.90  0.88  0.87  0.85  0.86  0.86  0.86  0.84  0.82  0.80  0.78  0.77  0.76  0.67  0.59  0.50  0.46  0.43  0.39
0.39  0.50  0.62  0.73  0.79  0.84  0.90  0.88  0.87  0.85  0.86  0.86  0.86  0.84  0.82  0.80  0.78  0.77  0.76  0.67  0.59  0.50  0.46  0.43  0.39
0.39  0.50  0.62  0.73  0.79  0.84  0.90  0.88  0.87  0.85  0.86  0.86  0.86  0.84  0.82  0.80  0.78  0.77  0.76  0.67  0.59  0.50  0.46  0.43  0.39
0.39  0.50  0.62  0.73  0.79  0.84  0.90  0.88  0.87  0.85  0.86  0.86  0.86  0.84  0.82  0.80  0.78  0.77  0.76  0.67  0.59  0.50  0.46  0.43  0.39
0.39  0.50  0.62  0.73  0.79  0.84  0.90  0.88  0.87  0.85  0.86  0.86  0.86  0.84  0.82  0.80  0.78  0.77  0.76  0.67  0.59  0.50  0.46  0.43  0.39
0.39  0.50  0.62  0.73  0.79  0.84  0.90  0.88  0.87  0.85  0.86  0.86  0.86  0.84  0.82  0.80  0.78  0.77  0.76  0.67  0.59  0.50  0.46  0.43  0.39
0.39  0.50  0.62  0.73  0.79  0.84  0.90  0.88  0.87  0.85  0.86  0.86  0.86  0.84  0.82  0.80  0.78  0.77  0.76  0.67  0.59  0.50  0.46  0.43  0.39
0.39  0.50  0.62  0.73  0.79  0.84  0.90  0.88  0.87  0.85  0.86  0.86  0.86  0.84  0.82  0.80  0.78  0.77  0.76  0.67  0.59  0.50  0.46  0.43  0.39
0.39  0.50  0.62  0.73  0.79  0.84  0.90  0.88  0.87  0.85  0.86  0.86  0.86  0.84  0.82  0.80  0.78  0.77  0.76  0.67  0.59  0.50  0.46  0.43  0.39
0.39  0.50  0.62  0.73  0.79  0.84  0.90  0.88  0.87  0.85  0.86  0.86  0.86  0.84  0.82  0.80  0.78  0.77  0.76  0.67  0.59  0.50  0.46  0.43  0.39
0.39  0.50  0.62  0.73  0.79  0.84  0.90  0.88  0.87  0.85  0.86  0.86  0.86  0.84  0.82  0.80  0.78  0.77  0.76  0.67  0.59  0.50  0.46  0.43  0.39
0.39  0.50  0.62  0.73  0.79  0.84  0.90  0.88  0.87  0.85  0.86  0.86  0.86  0.84  0.82  0.80  0.78  0.77  0.76  0.67  0.59  0.50  0.46  0.43  0.39
0.39  0.50  0.62  0.73  0.79  0.84  0.90  0.88  0.87  0.85  0.86  0.86  0.86  0.84  0.82  0.80  0.78  0.77  0.76  0.67  0.59  0.50  0.46  0.43  0.39
0.39  0.50  0.62  0.73  0.79  0.84  0.90  0.88  0.87  0.85  0.86  0.86  0.86  0.84  0.82  0.80  0.78  0.77  0.76  0.67  0.59  0.50  0.46  0.43  0.39
$ ilon ilat of the cell. lon: -96.75, 26.75
56   65
$ sizes of the cell in km
   149.138      167.077      190.509      223.745      201.434      184.056      166.792      184.056      201.434      223.745      190.509      167.077      149.138      167.077      190.509      223.745      201.434      184.056      166.792      184.056      201.434      223.745      190.509      167.077      149.138
$ mean alpha: 0.377333333333
$ mean beta: 0.550149226198
$alpha by ik, ith
0.00  0.13  0.26  0.38  0.51  0.64  0.77  0.65  0.54  0.42  0.28  0.14  0.00  0.13  0.26  0.38  0.51  0.64  0.77  0.65  0.54  0.42  0.28  0.14  0.00
0.00  0.13  0.26  0.38  0.51  0.64  0.77  0.65  0.54  0.42  0.28  0.14  0.00  0.13  0.26  0.38  0.51  0.64  0.77  0.65  0.54  0.42  0.28  0.14  0.00
0.00  0.13  0.26  0.38  0.51  0.64  0.77  0.65  0.54  0.42  0.28  0.14  0.00  0.13  0.26  0.38  0.51  0.64  0.77  0.65  0.54  0.42  0.28  0.14  0.00
0.00  0.13  0.26  0.38  0.51  0.64  0.77  0.65  0.54  0.42  0.28  0.14  0.00  0.13  0.26  0.38  0.51  0.64  0.77  0.65  0.54  0.42  0.28  0.14  0.00
0.00  0.13  0.26  0.38  0.51  0.64  0.77  0.65  0.54  0.42  0.28  0.14  0.00  0.13  0.26  0.38  0.51  0.64  0.77  0.65  0.54  0.42  0.28  0.14  0.00
0.00  0.13  0.26  0.38  0.51  0.64  0.77  0.65  0.54  0.42  0.28  0.14  0.00  0.13  0.26  0.38  0.51  0.64  0.77  0.65  0.54  0.42  0.28  0.14  0.00
0.00  0.13  0.26  0.38  0.51  0.64  0.77  0.65  0.54  0.42  0.28  0.14  0.00  0.13  0.26  0.38  0.51  0.64  0.77  0.65  0.54  0.42  0.28  0.14  0.00
0.00  0.13  0.26  0.38  0.51  0.64  0.77  0.65  0.54  0.42  0.28  0.14  0.00  0.13  0.26  0.38  0.51  0.64  0.77  0.65  0.54  0.42  0.28  0.14  0.00
0.00  0.13  0.26  0.38  0.51  0.64  0.77  0.65  0.54  0.42  0.28  0.14  0.00  0.13  0.26  0.38  0.51  0.64  0.77  0.65  0.54  0.42  0.28  0.14  0.00
0.00  0.13  0.26  0.38  0.51  0.64  0.77  0.65  0.54  0.42  0.28  0.14  0.00  0.13  0.26  0.38  0.51  0.64  0.77  0.65  0.54  0.42  0.28  0.14  0.00
0.00  0.13  0.26  0.38  0.51  0.64  0.77  0.65  0.54  0.42  0.28  0.14  0.00  0.13  0.26  0.38  0.51  0.64  0.77  0.65  0.54  0.42  0.28  0.14  0.00
0.00  0.13  0.26  0.38  0.51  0.64  0.77  0.65  0.54  0.42  0.28  0.14  0.00  0.13  0.26  0.38  0.51  0.64  0.77  0.65  0.54  0.42  0.28  0.14  0.00
0.00  0.13  0.26  0.38  0.51  0.64  0.77  0.65  0.54  0.42  0.28  0.14  0.00  0.13  0.26  0.38  0.51  0.64  0.77  0.65  0.54  0.42  0.28  0.14  0.00
0.00  0.13  0.26  0.38  0.51  0.64  0.77  0.65  0.54  0.42  0.28  0.14  0.00  0.13  0.26  0.38  0.51  0.64  0.77  0.65  0.54  0.42  0.28  0.14  0.00
0.00  0.13  0.26  0.38  0.51  0.64  0.77  0.65  0.54  0.42  0.28  0.14  0.00  0.13  0.26  0.38  0.51  0.64  0.77  0.65  0.54  0.42  0.28  0.14  0.00
0.00  0.13  0.26  0.38  0.51  0.64  0.77  0.65  0.54  0.42  0.28  0.14  0.00  0.13  0.26  0.38  0.51  0.64  0.77  0.65  0.54  0.42  0.28  0.14  0.00
0.00  0.13  0.26  0.38  0.51  0.64  0.77  0.65  0.54  0.42  0.28  0.14  0.00  0.13  0.26  0.38  0.51  0.64  0.77  0.65  0.54  0.42  0.28  0.14  0.00
0.00  0.13  0.26  0.38  0.51  0.64  0.77  0.65  0.54  0.42  0.28  0.14  0.00  0.13  0.26  0.38  0.51  0.64  0.77  0.65  0.54  0.42  0.28  0.14  0.00
0.00  0.13  0.26  0.38  0.51  0.64  0.77  0.65  0.54  0.42  0.28  0.14  0.00  0.13  0.26  0.38  0.51  0.64  0.77  0.65  0.54  0.42  0.28  0.14  0.00
0.00  0.13  0.26  0.38  0.51  0.64  0.77  0.65  0.54  0.42  0.28  0.14  0.00  0.13  0.26  0.38  0.51  0.64  0.77  0.65  0.54  0.42  0.28  0.14  0.00
0.00  0.13  0.26  0.38  0.51  0.64  0.77  0.65  0.54  0.42  0.28  0.14  0.00  0.13  0.26  0.38  0.51  0.64  0.77  0.65  0.54  0.42  0.28  0.14  0.00
0.00  0.13  0.26  0.38  0.51  0.64  0.77  0.65  0.54  0.42  0.28  0.14  0.00  0.13  0.26  0.38  0.51  0.64  0.77  0.65  0.54  0.42  0.28  0.14  0.00
0.00  0.13  0.26  0.38  0.51  0.64  0.77  0.65  0.54  0.42  0.28  0.14  0.00  0.13  0.26  0.38  0.51  0.64  0.77  0.65  0.54  0.42  0.28  0.14  0.00
0.00  0.13  0.26  0.38  0.51  0.64  0.77  0.65  0.54  0.42  0.28  0.14  0.00  0.13  0.26  0.38  0.51  0.64  0.77  0.65  0.54  0.42  0.28  0.14  0.00
0.00  0.13  0.26  0.38  0.51  0.64  0.77  0.65  0.54  0.42  0.28  0.14  0.00  0.13  0.26  0.38  0.51  0.64  0.77  0.65  0.54  0.42  0.28  0.14  0.00
$beta by ik, ith
0.00  0.12  0.23  0.35  0.49  0.63  0.77  0.75  0.74  0.73  0.75  0.78  0.80  0.77  0.75  0.72  0.75  0.79  0.82  0.68  0.54  0.40  0.27  0.13  0.00
0.00  0.12  0.23  0.35  0.49  0.63  0.77  0.75  0.74  0.73  0.75  0.78  0.80  0.77  0.75  0.72  0.75  0.79  0.82  0.68  0.54  0.40  0.27  0.13  0.00
0.00  0.12  0.23  0.35  0.49  0.63  0.77  0.75  0.74  0.73  0.75  0.78  0.80  0.77  0.75  0.72  0.75  0.79  0.82  0.68  0.54  0.40  0.27  0.13  0.00
0.00  0.12  0.23  0.35  0.49  0.63  0.77  0.75  0.74  0.73  0.75  0.78  0.80  0.77  0.75  0.72  0.75  0.79  0.82  0.68  0.54  0.40  0.27  0.13  0.00
0.00  0.12  0.23  0.35  0.49  0.63  0.77  0.75  0.74  0.73  0.75  0.78  0.80  0.77  0.75  0.72  0.75  0.79  0.82  0.68  0.54  0.40  0.27  0.13  0.00
0.00  0.12  0.23  0.35  0.49  0.63  0.77  0.75  0.74  0.73  0.75  0.78  0.80  0.77  0.75  0.72  0.75  0.79  0.82  0.68  0.54  0.40  0.27  0.13  0.00
0.00  0.12  0.23  0.35  0.49  0.63  0.77  0.75  0.74  0.73  0.75  0.78  0.80  0.77  0.75  0.72  0.75  0.79  0.82  0.68  0.54  0.40  0.27  0.13  0.00
0.00  0.12  0.23  0.35  0.49  0.63  0.77  0.75  0.74  0.73  0.75  0.78  0.80  0.77  0.75  0.72  0.75  0.79  0.82  0.68  0.54  0.40  0.27  0.13  0.00
0.00  0.12  0.23  0.35  0.49  0.63  0.77  0.75  0.74  0.73  0.75  0.78  0.80  0.77  0.75  0.72  0.75  0.79  0.82  0.68  0.54  0.40  0.27  0.13  0.00
0.00  0.12  0.23  0.35  0.49  0.63  0.77  0.75  0.74  0.73  0.75  0.78  0.80  0.77  0.75  0.72  0.75  0.79  0.82  0.68  0.54  0.40  0.27  0.13  0.00
0.00  0.12  0.23  0.35  0.49  0.63  0.77  0.75  0.74  0.73  0.75  0.78  0.80  0.77  0.75  0.72  0.75  0.79  0.82  0.68  0.54  0.40  0.27  0.13  0.00
0.00  0.12  0.23  0.35  0.49  0.63  0.77  0.75  0.74  0.73  0.75  0.78  0.80  0.77  0.75  0.72  0.75  0.79  0.82  0.68  0.54  0.40  0.27  0.13  0.00
0.00  0.12  0.23  0.35  0.49  0.63  0.77  0.75  0.74  0.73  0.75  0.78  0.80  0.77  0.75  0.72  0.75  0.79  0.82  0.68  0.54  0.40  0.27  0.13  0.00
0.00  0.12  0.23  0.35  0.49  0.63  0.77  0.75  0.74  0.73  0.75  0.78  0.80  0.77  0.75  0.72  0.75  0.79  0.82  0.68  0.54  0.40  0.27  0.13  0.00
0.00  0.12  0.23  0.35  0.49  0.63  0.77  0.75  0.74  0.73  0.75  0.78  0.80  0.77  0.75  0.72  0.75  0.79  0.82  0.68  0.54  0.40  0.27  0.13  0.00
0.00  0.12  0.23  0.35  0.49  0.63  0.77  0.75  0.74  0.73  0.75  0.78  0.80  0.77  0.75  0.72  0.75  0.79  0.82  0.68  0.54  0.40  0.27  0.13  0.00
0.00  0.12  0.23  0.35  0.49  0.63  0.77  0.75  0.74  0.73  0.75  0.78  0.80  0.77  0.75  0.72  0.75  0.79  0.82  0.68  0.54  0.40  0.27  0.13  0.00
0.00  0.12  0.23  0.35  0.49  0.63  0.77  0.75  0.74  0.73  0.75  0.78  0.80  0.77  0.75  0.72  0.75  0.79  0.82  0.68  0.54  0.40  0.27  0.13  0.00
0.00  0.12  0.23  0.35  0.49  0.63  0.77  0.75  0.74  0.73  0.75  0.78  0.80  0.77  0.75  0.72  0.75  0.79  0.82  0.68  0.54  0.40  0.27  0.13  0.00
0.00  0.12  0.23  0.35  0.49  0.63  0.77  0.75  0.74  0.73  0.75  0.78  0.80  0.77  0.75  0.72  0.75  0.79  0.82  0.68  0.54  0.40  0.27  0.13  0.00
0.00  0.12  0.23  0.35  0.49  0.63  0.77  0.75  0.74  0.73  0.75  0.78  0.80  0.77  0.75  0.72  0.75  0.79  0.82  0.68  0.54  0.40  0.27  0.13  0.00
0.00  0.12  0.23  0.35  0.49  0.63  0.77  0.75  0.74  0.73  0.75  0.78  0.80  0.77  0.75  0.72  0.75  0.79  0.82  0.68  0.54  0.40  0.27  0.13  0.00
0.00  0.12  0.23  0.35  0.49  0.63  0.77  0.75  0.74  0.73  0.75  0.78  0.80  0.77  0.75  0.72  0.75  0.79  0.82  0.68  0.54  0.40  0.27  0.13  0.00
0.00  0.12  0.23  0.35  0.49  0.63  0.77  0.75  0.74  0.73  0.75  0.78  0.80  0.77  0.75  0.72  0.75  0.79  0.82  0.68  0.54  0.40  0.27  0.13  0.00
0.00  0.12  0.23  0.35  0.49  0.63  0.77  0.75  0.74  0.73  0.75  0.78  0.80  0.77  0.75  0.72  0.75  0.79  0.82  0.68  0.54  0.40  0.27  0.13  0.00
$ ilon ilat of the cell. lon: -95.25, 16.25
57   58
$ sizes of the cell in km
   160.251      178.533      200.631      231.301      204.684      184.826      166.792      184.826      204.684      231.301      200.631      178.533      160.251      178.533      200.631      231.301      204.684      184.826      166.792      184.826      204.684      231.301      200.631      178.533      160.251
$ mean alpha: 0.136000111898
$ mean beta: 0.232586138423
$alpha by ik, ith
0.20  0.21  0.22  0.23  0.16  0.08  0.00  0.03  0.07  0.10  0.13  0.17  0.20  0.21  0.22  0.23  0.16  0.08  0.00  0.03  0.07  0.10  0.13  0.17  0.20
0.20  0.21  0.22  0.23  0.16  0.08  0.00  0.03  0.07  0.10  0.13  0.17  0.20  0.21  0.22  0.23  0.16  0.08  0.00  0.03  0.07  0.10  0.13  0.17  0.20
0.20  0.21  0.22  0.23  0.16  0.08  0.00  0.03  0.07  0.10  0.13  0.17  0.20  0.21  0.22  0.23  0.16  0.08  0.00  0.03  0.07  0.10  0.13  0.17  0.20
0.20  0.21  0.22  0.23  0.16  0.08  0.00  0.03  0.07  0.10  0.13  0.17  0.20  0.21  0.22  0.23  0.16  0.08  0.00  0.03  0.07  0.10  0.13  0.17  0.20
0.20  0.21  0.22  0.23  0.16  0.08  0.00  0.03  0.07  0.10  0.13  0.17  0.20  0.21  0.22  0.23  0.16  0.08  0.00  0.03  0.07  0.10  0.13  0.17  0.20
0.20  0.21  0.22  0.23  0.16  0.08  0.00  0.03  0.07  0.10  0.13  0.17  0.20  0.21  0.22  0.23  0.16  0.08  0.00  0.03  0.07  0.10  0.13  0.17  0.20
0.20  0.21  0.22  0.23  0.16  0.08  0.00  0.03  0.07  0.10  0.13  0.17  0.20  0.21  0.22  0.23  0.16  0.08  0.00  0.03  0.07  0.10  0.13  0.17  0.20
0.20  0.21  0.22  0.23  0.16  0.08  0.00  0.03  0.07  0.10  0.13  0.17  0.20  0.21  0.22  0.23  0.16  0.08  0.00  0.03  0.07  0.10  0.13  0.17  0.20
0.20  0.21  0.22  0.23  0.16  0.08  0.00  0.03  0.07  0.10  0.13  0.17  0.20  0.21  0.22  0.23  0.16  0.08  0.00  0.03  0.07  0.10  0.13  0.17  0.20
0.20  0.21  0.22  0.23  0.16  0.08  0.00  0.03  0.07  0.10  0.13  0.17  0.20  0.21  0.22  0.23  0.16  0.08  0.00  0.03  0.07  0.10  0.13  0.17  0.20
0.20  0.21  0.22  0.23  0.16  0.08  0.00  0.03  0.07  0.10  0.13  0.17  0.20  0.21  0.22  0.23  0.16  0.08  0.00  0.03  0.07  0.10  0.13  0.17  0.20
0.20  0.21  0.22  0.23  0.16  0.08  0.00  0.03  0.07  0.10  0.13  0.17  0.20  0.21  0.22  0.23  0.16  0.08  0.00  0.03  0.07  0.10  0.13  0.17  0.20
0.20  0.21  0.22  0.23  0.16  0.08  0.00  0.03  0.07  0.10  0.13  0.17  0.20  0.21  0.22  0.23  0.16  0.08  0.00  0.03  0.07  0.10  0.13  0.17  0.20
0.20  0.21  0.22  0.23  0.16  0.08  0.00  0.03  0.07  0.10  0.13  0.17  0.20  0.21  0.22  0.23  0.16  0.08  0.00  0.03  0.07  0.10  0.13  0.17  0.20
0.20  0.21  0.22  0.23  0.16  0.08  0.00  0.03  0.07  0.10  0.13  0.17  0.20  0.21  0.22  0.23  0.16  0.08  0.00  0.03  0.07  0.10  0.13  0.17  0.20
0.20  0.21  0.22  0.23  0.16  0.08  0.00  0.03  0.07  0.10  0.13  0.17  0.20  0.21  0.22  0.23  0.16  0.08  0.00  0.03  0.07  0.10  0.13  0.17  0.20
0.20  0.21  0.22  0.23  0.16  0.08  0.00  0.03  0.07  0.10  0.13  0.17  0.20  0.21  0.22  0.23  0.16  0.08  0.00  0.03  0.07  0.10  0.13  0.17  0.20
0.20  0.21  0.22  0.23  0.16  0.08  0.00  0.03  0.07  0.10  0.13  0.17  0.20  0.21  0.22  0.23  0.16  0.08  0.00  0.03  0.07  0.10  0.13  0.17  0.20
0.20  0.21  0.22  0.23  0.16  0.08  0.00  0.03  0.07  0.10  0.13  0.17  0.20  0.21  0.22  0.23  0.16  0.08  0.00  0.03  0.07  0.10  0.13  0.17  0.20
0.20  0.21  0.22  0.23  0.16  0.08  0.00  0.03  0.07  0.10  0.13  0.17  0.20  0.21  0.22  0.23  0.16  0.08  0.00  0.03  0.07  0.10  0.13  0.17  0.20
0.20  0.21  0.22  0.23  0.16  0.08  0.00  0.03  0.07  0.10  0.13  0.17  0.20  0.21  0.22  0.23  0.16  0.08  0.00  0.03  0.07  0.10  0.13  0.17  0.20
0.20  0.21  0.22  0.23  0.16  0.08  0.00  0.03  0.07  0.10  0.13  0.17  0.20  0.21  0.22  0.23  0.16  0.08  0.00  0.03  0.07  0.10  0.13  0.17  0.20
0.20  0.21  0.22  0.23  0.16  0.08  0.00  0.03  0.07  0.10  0.13  0.17  0.20  0.21  0.22  0.23  0.16  0.08  0.00  0.03  0.07  0.10  0.13  0.17  0.20
0.20  0.21  0.22  0.23  0.16  0.08  0.00  0.03  0.07  0.10  0.13  0.17  0.20  0.21  0.22  0.23  0.16  0.08  0.00  0.03  0.07  0.10  0.13  0.17  0.20
0.20  0.21  0.22  0.23  0.16  0.08  0.00  0.03  0.07  0.10  0.13  0.17  0.20  0.21  0.22  0.23  0.16  0.08  0.00  0.03  0.07  0.10  0.13  0.17  0.20
$beta by ik, ith
0.20  0.26  0.32  0.38  0.36  0.35  0.34  0.34  0.33  0.33  0.34  0.35  0.36  0.31  0.25  0.19  0.13  0.06  0.00  0.02  0.05  0.07  0.11  0.16  0.20
0.20  0.26  0.32  0.38  0.36  0.35  0.34  0.34  0.33  0.33  0.34  0.35  0.36  0.31  0.25  0.19  0.13  0.06  0.00  0.02  0.05  0.07  0.11  0.16  0.20
0.20  0.26  0.32  0.38  0.36  0.35  0.34  0.34  0.33  0.33  0.34  0.35  0.36  0.31  0.25  0.19  0.13  0.06  0.00  0.02  0.05  0.07  0.11  0.16  0.20
0.20  0.26  0.32  0.38  0.36  0.35  0.34  0.34  0.33  0.33  0.34  0.35  0.36  0.31  0.25  0.19  0.13  0.06  0.00  0.02  0.05  0.07  0.11  0.16  0.20
0.20  0.26  0.32  0.38  0.36  0.35  0.34  0.34  0.33  0.33  0.34  0.35  0.36  0.31  0.25  0.19  0.13  0.06  0.00  0.02  0.05  0.07  0.11  0.16  0.20
0.20  0.26  0.32  0.38  0.36  0.35  0.34  0.34  0.33  0.33  0.34  0.35  0.36  0.31  0.25  0.19  0.13  0.06  0.00  0.02  0.05  0.07  0.11  0.16  0.20
0.20  0.26  0.32  0.38  0.36  0.35  0.34  0.34  0.33  0.33  0.34  0.35  0.36  0.31  0.25  0.19  0.13  0.06  0.00  0.02  0.05  0.07  0.11  0.16  0.20
0.20  0.26  0.32  0.38  0.36  0.35  0.34  0.34  0.33  0.33  0.34  0.35  0.36  0.31  0.25  0.19  0.13  0.06  0.00  0.02  0.05  0.07  0.11  0.16  0.20
0.20  0.26  0.32  0.38  0.36  0.35  0.34  0.34  0.33  0.33  0.34  0.35  0.36  0.31  0.25  0.19  0.13  0.06  0.00  0.02  0.05  0.07  0.11  0.16  0.20
0.20  0.26  0.32  0.38  0.36  0.35  0.34  0.34  0.33  0.33  0.34  0.35  0.36  0.31  0.25  0.19  0.13  0.06  0.00  0.02  0.05  0.07  0.11  0.16  0.20
0.20  0.26  0.32  0.38  0.36  0.35  0.34  0.34  0.33  0.33  0.34  0.35  0.36  0.31  0.25  0.19  0.13  0.06  0.00  0.02  0.05  0.07  0.11  0.16  0.20
0.20  0.26  0.32  0.38  0.36  0.35  0.34  0.34  0.33  0.33  0.34  0.35  0.36  0.31  0.25  0.19  0.13  0.06  0.00  0.02  0.05  0.07  0.11  0.16  0.20
0.20  0.26  0.32  0.38  0.36  0.35  0.34  0.34  0.33  0.33  0.34  0.35  0.36  0.31  0.25  0.19  0.13  0.06  0.00  0.02  0.05  0.07  0.11  0.16  0.20
0.20  0.26  0.32  0.38  0.36  0.35  0.34  0.34  0.33  0.33  0.34  0.35  0.36  0.31  0.25  0.19  0.13  0.06  0.00  0.02  0.05  0.07  0.11  0.16  0.20
0.20  0.26  0.32  0.38  0.36  0.35  0.34  0.34  0.33  0.33  0.34  0.35  0.36  0.31  0.25  0.19  0.13  0.06  0.00  0.02  0.05  0.07  0.11  0.16  0.20
0.20  0.26  0.32  0.38  0.36  0.35  0.34  0.34  0.33  0.33  0.34  0.35  0.36  0.31  0.25  0.19  0.13  0.06  0.00  0.02  0.05  0.07  0.11  0.16  0.20
0.20  0.26  0.32  0.38  0.36  0.35  0.34  0.34  0.33  0.33  0.34  0.35  0.36  0.31  0.25  0.19  0.13  0.06  0.00  0.02  0.05  0.07  0.11  0.16  0.20
0.20  0.26  0.32  0.38  0.36  0.35  0.34  0.34  0.33  0.33  0.34  0.35  0.36  0.31  0.25  0.19  0.13  0.06  0.00  0.02  0.05  0.07  0.11  0.16  0.20
0.20  0.26  0.32  0.38  0.36  0.35  0.34  0.34  0.33  0.33  0.34  0.35  0.36  0.31  0.25  0.19  0.13  0.06  0.00  0.02  0.05  0.07  0.11  0.16  0.20
0.20  0.26  0.32  0.38  0.36  0.35  0.34  0.34  0.33  0.33  0.34  0.35  0.36  0.31  0.25  0.19  0.13  0.06  0.00  0.02  0.05  0.07  0.11  0.16  0.20
0.20  0.26  0.32  0.38  0.36  0.35  0.34  0.34  0.33  0.33  0.34  0.35  0.36  0.31  0.25  0.19  0.13  0.06  0.00  0.02  0.05  0.07  0.11  0.16  0.20
0.20  0.26  0.32  0.38  0.36  0.35  0.34  0.34  0.33  0.33  0.34  0.35  0.36  0.31  0.25  0.19  0.13  0.06  0.00  0.02  0.05  0.07  0.11  0.16  0.20
0.20  0.26  0.32  0.38  0.36  0.35  0.34  0.34  0.33  0.33  0.34  0.35  0.36  0.31  0.25  0.19  0.13  0.06  0.00  0.02  0.05  0.07  0.11  0.16  0.20
0.20  0.26  0.32  0.38  0.36  0.35  0.34  0.34  0.33  0.33  0.34  0.35  0.36  0.31  0.25  0.19  0.13  0.06  0.00  0.02  0.05  0.07  0.11  0.16  0.20
0.20  0.26  0.32  0.38  0.36  0.35  0.34  0.34  0.33  0.33  0.34  0.35  0.36  0.31  0.25  0.19  0.13  0.06  0.00  0.02  0.05  0.07  0.11  0.16  0.20
$ ilon ilat of the cell. lon: -95.25, 19.25
57   60
$ sizes of the cell in km
   157.610      175.805      198.208      229.479      203.895      184.639      166.792      184.639      203.895      229.479      198.208      175.805      157.610      175.805      198.208      229.479      203.895      184.639      166.792      184.639      203.895      229.479      198.208      175.805      157.610
$ mean alpha: 0.448444315592
$ mean beta: 0.613098598196
$alpha by ik, ith
0.61  0.54  0.47  0.40  0.33  0.25  0.18  0.31  0.44  0.58  0.59  0.60  0.61  0.54  0.47  0.40  0.33  0.25  0.18  0.31  0.44  0.58  0.59  0.60  0.61
0.61  0.54  0.47  0.40  0.33  0.25  0.18  0.31  0.44  0.58  0.59  0.60  0.61  0.54  0.47  0.40  0.33  0.25  0.18  0.31  0.44  0.58  0.59  0.60  0.61
0.61  0.54  0.47  0.40  0.33  0.25  0.18  0.31  0.44  0.58  0.59  0.60  0.61  0.54  0.47  0.40  0.33  0.25  0.18  0.31  0.44  0.58  0.59  0.60  0.61
0.61  0.54  0.47  0.40  0.33  0.25  0.18  0.31  0.44  0.58  0.59  0.60  0.61  0.54  0.47  0.40  0.33  0.25  0.18  0.31  0.44  0.58  0.59  0.60  0.61
0.61  0.54  0.47  0.40  0.33  0.25  0.18  0.31  0.44  0.58  0.59  0.60  0.61  0.54  0.47  0.40  0.33  0.25  0.18  0.31  0.44  0.58  0.59  0.60  0.61
0.61  0.54  0.47  0.40  0.33  0.25  0.18  0.31  0.44  0.58  0.59  0.60  0.61  0.54  0.47  0.40  0.33  0.25  0.18  0.31  0.44  0.58  0.59  0.60  0.61
0.61  0.54  0.47  0.40  0.33  0.25  0.18  0.31  0.44  0.58  0.59  0.60  0.61  0.54  0.47  0.40  0.33  0.25  0.18  0.31  0.44  0.58  0.59  0.60  0.61
0.61  0.54  0.47  0.40  0.33  0.25  0.18  0.31  0.44  0.58  0.59  0.60  0.61  0.54  0.47  0.40  0.33  0.25  0.18  0.31  0.44  0.58  0.59  0.60  0.61
0.61  0.54  0.47  0.40  0.33  0.25  0.18  0.31  0.44  0.58  0.59  0.60  0.61  0.54  0.47  0.40  0.33  0.25  0.18  0.31  0.44  0.58  0.59  0.60  0.61
0.61  0.54  0.47  0.40  0.33  0.25  0.18  0.31  0.44  0.58  0.59  0.60  0.61  0.54  0.47  0.40  0.33  0.25  0.18  0.31  0.44  0.58  0.59  0.60  0.61
0.61  0.54  0.47  0.40  0.33  0.25  0.18  0.31  0.44  0.58  0.59  0.60  0.61  0.54  0.47  0.40  0.33  0.25  0.18  0.31  0.44  0.58  0.59  0.60  0.61
0.61  0.54  0.47  0.40  0.33  0.25  0.18  0.31  0.44  0.58  0.59  0.60  0.61  0.54  0.47  0.40  0.33  0.25  0.18  0.31  0.44  0.58  0.59  0.60  0.61
0.61  0.54  0.47  0.40  0.33  0.25  0.18  0.31  0.44  0.58  0.59  0.60  0.61  0.54  0.47  0.40  0.33  0.25  0.18  0.31  0.44  0.58  0.59  0.60  0.61
0.61  0.54  0.47  0.40  0.33  0.25  0.18  0.31  0.44  0.58  0.59  0.60  0.61  0.54  0.47  0.40  0.33  0.25  0.18  0.31  0.44  0.58  0.59  0.60  0.61
0.61  0.54  0.47  0.40  0.33  0.25  0.18  0.31  0.44  0.58  0.59  0.60  0.61  0.54  0.47  0.40  0.33  0.25  0.18  0.31  0.44  0.58  0.59  0.60  0.61
0.61  0.54  0.47  0.40  0.33  0.25  0.18  0.31  0.44  0.58  0.59  0.60  0.61  0.54  0.47  0.40  0.33  0.25  0.18  0.31  0.44  0.58  0.59  0.60  0.61
0.61  0.54  0.47  0.40  0.33  0.25  0.18  0.31  0.44  0.58  0.59  0.60  0.61  0.54  0.47  0.40  0.33  0.25  0.18  0.31  0.44  0.58  0.59  0.60  0.61
0.61  0.54  0.47  0.40  0.33  0.25  0.18  0.31  0.44  0.58  0.59  0.60  0.61  0.54  0.47  0.40  0.33  0.25  0.18  0.31  0.44  0.58  0.59  0.60  0.61
0.61  0.54  0.47  0.40  0.33  0.25  0.18  0.31  0.44  0.58  0.59  0.60  0.61  0.54  0.47  0.40  0.33  0.25  0.18  0.31  0.44  0.58  0.59  0.60  0.61
0.61  0.54  0.47  0.40  0.33  0.25  0.18  0.31  0.44  0.58  0.59  0.60  0.61  0.54  0.47  0.40  0.33  0.25  0.18  0.31  0.44  0.58  0.59  0.60  0.61
0.61  0.54  0.47  0.40  0.33  0.25  0.18  0.31  0.44  0.58  0.59  0.60  0.61  0.54  0.47  0.40  0.33  0.25  0.18  0.31  0.44  0.58  0.59  0.60  0.61
0.61  0.54  0.47  0.40  0.33  0.25  0.18  0.31  0.44  0.58  0.59  0.60  0.61  0.54  0.47  0.40  0.33  0.25  0.18  0.31  0.44  0.58  0.59  0.60  0.61
0.61  0.54  0.47  0.40  0.33  0.25  0.18  0.31  0.44  0.58  0.59  0.60  0.61  0.54  0.47  0.40  0.33  0.25  0.18  0.31  0.44  0.58  0.59  0.60  0.61
0.61  0.54  0.47  0.40  0.33  0.25  0.18  0.31  0.44  0.58  0.59  0.60  0.61  0.54  0.47  0.40  0.33  0.25  0.18  0.31  0.44  0.58  0.59  0.60  0.61
0.61  0.54  0.47  0.40  0.33  0.25  0.18  0.31  0.44  0.58  0.59  0.60  0.61  0.54  0.47  0.40  0.33  0.25  0.18  0.31  0.44  0.58  0.59  0.60  0.61
$beta by ik, ith
0.61  0.52  0.42  0.33  0.28  0.23  0.18  0.32  0.46  0.60  0.68  0.77  0.85  0.82  0.80  0.77  0.79  0.80  0.82  0.80  0.77  0.74  0.70  0.66  0.61
0.61  0.52  0.42  0.33  0.28  0.23  0.18  0.32  0.46  0.60  0.68  0.77  0.85  0.82  0.80  0.77  0.79  0.80  0.82  0.80  0.77  0.74  0.70  0.66  0.61
0.61  0.52  0.42  0.33  0.28  0.23  0.18  0.32  0.46  0.60  0.68  0.77  0.85  0.82  0.80  0.77  0.79  0.80  0.82  0.80  0.77  0.74  0.70  0.66  0.61
0.61  0.52  0.42  0.33  0.28  0.23  0.18  0.32  0.46  0.60  0.68  0.77  0.85  0.82  0.80  0.77  0.79  0.80  0.82  0.80  0.77  0.74  0.70  0.66  0.61
0.61  0.52  0.42  0.33  0.28  0.23  0.18  0.32  0.46  0.60  0.68  0.77  0.85  0.82  0.80  0.77  0.79  0.80  0.82  0.80  0.77  0.74  0.70  0.66  0.61
0.61  0.52  0.42  0.33  0.28  0.23  0.18  0.32  0.46  0.60  0.68  0.77  0.85  0.82  0.80  0.77  0.79  0.80  0.82  0.80  0.77  0.74  0.70  0.66  0.61
0.61  0.52  0.42  0.33  0.28  0.23  0.18  0.32  0.46  0.60  0.68  0.77  0.85  0.82  0.80  0.77  0.79  0.80  0.82  0.80  0.77  0.74  0.70  0.66  0.61
0.61  0.52  0.42  0.33  0.28  0.23  0.18  0.32  0.46  0.60  0.68  0.77  0.85  0.82  0.80  0.77  0.79  0.80  0.82  0.80  0.77  0.74  0.70  0.66  0.61
0.61  0.52  0.42  0.33  0.28  0.23  0.18  0.32  0.46  0.60  0.68  0.77  0.85  0.82  0.80  0.77  0.79  0.80  0.82  0.80  0.77  0.74  0.70  0.66  0.61
0.61  0.52  0.42  0.33  0.28  0.23  0.18  0.32  0.46  0.60  0.68  0.77  0.85  0.82  0.80  0.77  0.79  0.80  0.82  0.80  0.77  0.74  0.70  0.66  0.61
0.61  0.52  0.42  0.33  0.28  0.23  0.18  0.32  0.46  0.60  0.68  0.77  0.85  0.82  0.80  0.77  0.79  0.80  0.82  0.80  0.77  0.74  0.70  0.66  0.61
0.61  0.52  0.42  0.33  0.28  0.23  0.18  0.32  0.46  0.60  0.68  0.77  0.85  0.82  0.80  0.77  0.79  0.80  0.82  0.80  0.77  0.74  0.70  0.66  0.61
0.61  0.52  0.42  0.33  0.28  0.23  0.18  0.32  0.46  0.60  0.68  0.77  0.85  0.82  0.80  0.77  0.79  0.80  0.82  0.80  0.77  0.74  0.70  0.66  0.61
0.61  0.52  0.42  0.33  0.28  0.23  0.18  0.32  0.46  0.60  0.68  0.77  0.85  0.82  0.80  0.77  0.79  0.80  0.82  0.80  0.77  0.74  0.70  0.66  0.61
0.61  0.52  0.42  0.33  0.28  0.23  0.18  0.32  0.46  0.60  0.68  0.77  0.85  0.82  0.80  0.77  0.79  0.80  0.82  0.80  0.77  0.74  0.70  0.66  0.61
0.61  0.52  0.42  0.33  0.28  0.23  0.18  0.32  0.46  0.60  0.68  0.77  0.85  0.82  0.80  0.77  0.79  0.80  0.82  0.80  0.77  0.74  0.70  0.66  0.61
0.61  0.52  0.42  0.33  0.28  0.23  0.18  0.32  0.46  0.60  0.68  0.77  0.85  0.82  0.80  0.77  0.79  0.80  0.82  0.80  0.77  0.74  0.70  0.66  0.61
0.61  0.52  0.42  0.33  0.28  0.23  0.18  0.32  0.46  0.60  0.68  0.77  0.85  0.82  0.80  0.77  0.79  0.80  0.82  0.80  0.77  0.74  0.70  0.66  0.61
0.61  0.52  0.42  0.33  0.28  0.23  0.18  0.32  0.46  0.60  0.68  0.77  0.85  0.82  0.80  0.77  0.79  0.80  0.82  0.80  0.77  0.74  0.70  0.66  0.61
0.61  0.52  0.42  0.33  0.28  0.23  0.18  0.32  0.46  0.60  0.68  0.77  0.85  0.82  0.80  0.77  0.79  0.80  0.82  0.80  0.77  0.74  0.70  0.66  0.61
0.61  0.52  0.42  0.33  0.28  0.23  0.18  0.32  0.46  0.60  0.68  0.77  0.85  0.82  0.80  0.77  0.79  0.80  0.82  0.80  0.77  0.74  0.70  0.66  0.61
0.61  0.52  0.42  0.33  0.28  0.23  0.18  0.32  0.46  0.60  0.68  0.77  0.85  0.82  0.80  0.77  0.79  0.80  0.82  0.80  0.77  0.74  0.70  0.66  0.61
0.61  0.52  0.42  0.33  0.28  0.23  0.18  0.32  0.46  0.60  0.68  0.77  0.85  0.82  0.80  0.77  0.79  0.80  0.82  0.80  0.77  0.74  0.70  0.66  0.61
0.61  0.52  0.42  0.33  0.28  0.23  0.18  0.32  0.46  0.60  0.68  0.77  0.85  0.82  0.80  0.77  0.79  0.80  0.82  0.80  0.77  0.74  0.70  0.66  0.61
0.61  0.52  0.42  0.33  0.28  0.23  0.18  0.32  0.46  0.60  0.68  0.77  0.85  0.82  0.80  0.77  0.79  0.80  0.82  0.80  0.77  0.74  0.70  0.66  0.61
$ ilon ilat of the cell. lon: -95.25, 28.25
57   66
$ sizes of the cell in km
   147.132      165.016      188.704      222.413      200.867      183.922      166.792      183.922      200.867      222.413      188.704      165.016      147.132      165.016      188.704      222.413      200.867      183.922      166.792      183.922      200.867      222.413      188.704      165.016      147.132
$ mean alpha: 0.652000030518
$ mean beta: 0.758415077546
$alpha by ik, ith
0.73  0.74  0.74  0.74  0.66  0.58  0.50  0.54  0.58  0.62  0.66  0.69  0.73  0.74  0.74  0.74  0.66  0.58  0.50  0.54  0.58  0.62  0.66  0.69  0.73
0.73  0.74  0.74  0.74  0.66  0.58  0.50  0.54  0.58  0.62  0.66  0.69  0.73  0.74  0.74  0.74  0.66  0.58  0.50  0.54  0.58  0.62  0.66  0.69  0.73
0.73  0.74  0.74  0.74  0.66  0.58  0.50  0.54  0.58  0.62  0.66  0.69  0.73  0.74  0.74  0.74  0.66  0.58  0.50  0.54  0.58  0.62  0.66  0.69  0.73
0.73  0.74  0.74  0.74  0.66  0.58  0.50  0.54  0.58  0.62  0.66  0.69  0.73  0.74  0.74  0.74  0.66  0.58  0.50  0.54  0.58  0.62  0.66  0.69  0.73
0.73  0.74  0.74  0.74  0.66  0.58  0.50  0.54  0.58  0.62  0.66  0.69  0.73  0.74  0.74  0.74  0.66  0.58  0.50  0.54  0.58  0.62  0.66  0.69  0.73
0.73  0.74  0.74  0.74  0.66  0.58  0.50  0.54  0.58  0.62  0.66  0.69  0.73  0.74  0.74  0.74  0.66  0.58  0.50  0.54  0.58  0.62  0.66  0.69  0.73
0.73  0.74  0.74  0.74  0.66  0.58  0.50  0.54  0.58  0.62  0.66  0.69  0.73  0.74  0.74  0.74  0.66  0.58  0.50  0.54  0.58  0.62  0.66  0.69  0.73
0.73  0.74  0.74  0.74  0.66  0.58  0.50  0.54  0.58  0.62  0.66  0.69  0.73  0.74  0.74  0.74  0.66  0.58  0.50  0.54  0.58  0.62  0.66  0.69  0.73
0.73  0.74  0.74  0.74  0.66  0.58  0.50  0.54  0.58  0.62  0.66  0.69  0.73  0.74  0.74  0.74  0.66  0.58  0.50  0.54  0.58  0.62  0.66  0.69  0.73
0.73  0.74  0.74  0.74  0.66  0.58  0.50  0.54  0.58  0.62  0.66  0.69  0.73  0.74  0.74  0.74  0.66  0.58  0.50  0.54  0.58  0.62  0.66  0.69  0.73
0.73  0.74  0.74  0.74  0.66  0.58  0.50  0.54  0.58  0.62  0.66  0.69  0.73  0.74  0.74  0.74  0.66  0.58  0.50  0.54  0.58  0.62  0.66  0.69  0.73
0.73  0.74  0.74  0.74  0.66  0.58  0.50  0.54  0.58  0.62  0.66  0.69  0.73  0.74  0.74  0.74  0.66  0.58  0.50  0.54  0.58  0.62  0.66  0.69  0.73
0.73  0.74  0.74  0.74  0.66  0.58  0.50  0.54  0.58  0.62  0.66  0.69  0.73  0.74  0.74  0.74  0.66  0.58  0.50  0.54  0.58  0.62  0.66  0.69  0.73
0.73  0.74  0.74  0.74  0.66  0.58  0.50  0.54  0.58  0.62  0.66  0.69  0.73  0.74  0.74  0.74  0.66  0.58  0.50  0.54  0.58  0.62  0.66  0.69  0.73
0.73  0.74  0.74  0.74  0.66  0.58  0.50  0.54  0.58  0.62  0.66  0.69  0.73  0.74  0.74  0.74  0.66  0.58  0.50  0.54  0.58  0.62  0.66  0.69  0.73
0.73  0.74  0.74  0.74  0.66  0.58  0.50  0.54  0.58  0.62  0.66  0.69  0.73  0.74  0.74  0.74  0.66  0.58  0.50  0.54  0.58  0.62  0.66  0.69  0.73
0.73  0.74  0.74  0.74  0.66  0.58  0.50  0.54  0.58  0.62  0.66  0.69  0.73  0.74  0.74  0.74  0.66  0.58  0.50  0.54  0.58  0.62  0.66  0.69  0.73
0.73  0.74  0.74  0.74  0.66  0.58  0.50  0.54  0.58  0.62  0.66  0.69  0.73  0.74  0.74  0.74  0.66  0.58  0.50  0.54  0.58  0.62  0.66  0.69  0.73
0.73  0.74  0.74  0.74  0.66  0.58  0.50  0.54  0.58  0.62  0.66  0.69  0.73  0.74  0.74  0.74  0.66  0.58  0.50  0.54  0.58  0.62  0.66  0.69  0.73
0.73  0.74  0.74  0.74  0.66  0.58  0.50  0.54  0.58  0.62  0.66  0.69  0.73  0.74  0.74  0.74  0.66  0.58  0.50  0.54  0.58  0.62  0.66  0.69  0.73
0.73  0.74  0.74  0.74  0.66  0.58  0.50  0.54  0.58  0.62  0.66  0.69  0.73  0.74  0.74  0.74  0.66  0.58  0.50  0.54  0.58  0.62  0.66  0.69  0.73
0.73  0.74  0.74  0.74  0.66  0.58  0.50  0.54  0.58  0.62  0.66  0.69  0.73  0.74  0.74  0.74  0.66  0.58  0.50  0.54  0.58  0.62  0.66  0.69  0.73
0.73  0.74  0.74  0.74  0.66  0.58  0.50  0.54  0.58  0.62  0.66  0.69  0.73  0.74  0.74  0.74  0.66  0.58  0.50  0.54  0.58  0.62  0.66  0.69  0.73
0.73  0.74  0.74  0.74  0.66  0.58  0.50  0.54  0.58  0.62  0.66  0.69  0.73  0.74  0.74  0.74  0.66  0.58  0.50  0.54  0.58  0.62  0.66  0.69  0.73
0.73  0.74  0.74  0.74  0.66  0.58  0.50  0.54  0.58  0.62  0.66  0.69  0.73  0.74  0.74  0.74  0.66  0.58  0.50  0.54  0.58  0.62  0.66  0.69  0.73
$beta by ik, ith
0.73  0.76  0.79  0.82  0.85  0.87  0.90  0.89  0.89  0.88  0.89  0.90  0.91  0.87  0.83  0.79  0.69  0.60  0.50  0.51  0.52  0.54  0.60  0.67  0.73
0.73  0.76  0.79  0.82  0.85  0.87  0.90  0.89  0.89  0.88  0.89  0.90  0.91  0.87  0.83  0.79  0.69  0.60  0.50  0.51  0.52  0.54  0.60  0.67  0.73
0.73  0.76  0.79  0.82  0.85  0.87  0.90  0.89  0.89  0.88  0.89  0.90  0.91  0.87  0.83  0.79  0.69  0.60  0.50  0.51  0.52  0.54  0.60  0.67  0.73
0.73  0.76  0.79  0.82  0.85  0.87  0.90  0.89  0.89  0.88  0.89  0.90  0.91  0.87  0.83  0.79  0.69  0.60  0.50  0.51  0.52  0.54  0.60  0.67  0.73
0.73  0.76  0.79  0.82  0.85  0.87  0.90  0.89  0.89  0.88  0.89  0.90  0.91  0.87  0.83  0.79  0.69  0.60  0.50  0.51  0.52  0.54  0.60  0.67  0.73
0.73  0.76  0.79  0.82  0.85  0.87  0.90  0.89  0.89  0.88  0.89  0.90  0.91  0.87  0.83  0.79  0.69  0.60  0.50  0.51  0.52  0.54  0.60  0.67  0.73
0.73  0.76  0.79  0.82  0.85  0.87  0.90  0.89  0.89  0.88  0.89  0.90  0.91  0.87  0.83  0.79  0.69  0.60  0.50  0.51  0.52  0.54  0.60  0.67  0.73
0.73  0.76  0.79  0.82  0.85  0.87  0.90  0.89  0.89  0.88  0.89  0.90  0.91  0.87  0.83  0.79  0.69  0.60  0.50  0.51  0.52  0.54  0.60  0.67  0.73
0.73  0.76  0.79  0.82  0.85  0.87  0.90  0.89  0.89  0.88  0.89  0.90  0.91  0.87  0.83  0.79  0.69  0.60  0.50  0.51  0.52  0.54  0.60  0.67  0.73
0.73  0.76  0.79  0.82  0.85  0.87  0.90  0.89  0.89  0.88  0.89  0.90  0.91  0.87  0.83  0.79  0.69  0.60  0.50  0.51  0.52  0.54  0.60  0.67  0.73
0.73  0.76  0.79  0.82  0.85  0.87  0.90  0.89  0.89  0.88  0.89  0.90  0.91  0.87  0.83  0.79  0.69  0.60  0.50  0.51  0.52  0.54  0.60  0.67  0.73
0.73  0.76  0.79  0.82  0.85  0.87  0.90  0.89  0.89  0.88  0.89  0.90  0.91  0.87  0.83  0.79  0.69  0.60  0.50  0.51  0.52  0.54  0.60  0.67  0.73
0.73  0.76  0.79  0.82  0.85  0.87  0.90  0.89  0.89  0.88  0.89  0.90  0.91  0.87  0.83  0.79  0.69  0.60  0.50  0.51  0.52  0.54  0.60  0.67  0.73
0.73  0.76  0.79  0.82  0.85  0.87  0.90  0.89  0.89  0.88  0.89  0.90  0.91  0.87  0.83  0.79  0.69  0.60  0.50  0.51  0.52  0.54  0.60  0.67  0.73
0.73  0.76  0.79  0.82  0.85  0.87  0.90  0.89  0.89  0.88  0.89  0.90  0.91  0.87  0.83  0.79  0.69  0.60  0.50  0.51  0.52  0.54  0.60  0.67  0.73
0.73  0.76  0.79  0.82  0.85  0.87  0.90  0.89  0.89  0.88  0.89  0.90  0.91  0.87  0.83  0.79  0.69  0.60  0.50  0.51  0.52  0.54  0.60  0.67  0.73
0.73  0.76  0.79  0.82  0.85  0.87  0.90  0.89  0.89  0.88  0.89  0.90  0.91  0.87  0.83  0.79  0.69  0.60  0.50  0.51  0.52  0.54  0.60  0.67  0.73
0.73  0.76  0.79  0.82  0.85  0.87  0.90  0.89  0.89  0.88  0.89  0.90  0.91  0.87  0.83  0.79  0.69  0.60  0.50  0.51  0.52  0.54  0.60  0.67  0.73
0.73  0.76  0.79  0.82  0.85  0.87  0.90  0.89  0.89  0.88  0.89  0.90  0.91  0.87  0.83  0.79  0.69  0.60  0.50  0.51  0.52  0.54  0.60  0.67  0.73
0.73  0.76  0.79  0.82  0.85  0.87  0.90  0.89  0.89  0.88  0.89  0.90  0.91  0.87  0.83  0.79  0.69  0.60  0.50  0.51  0.52  0.54  0.60  0.67  0.73
0.73  0.76  0.79  0.82  0.85  0.87  0.90  0.89  0.89  0.88  0.89  0.90  0.91  0.87  0.83  0.79  0.69  0.60  0.50  0.51  0.52  0.54  0.60  0.67  0.73
0.73  0.76  0.79  0.82  0.85  0.87  0.90  0.89  0.89  0.88  0.89  0.90  0.91  0.87  0.83  0.79  0.69  0.60  0.50  0.51  0.52  0.54  0.60  0.67  0.73
0.73  0.76  0.79  0.82  0.85  0.87  0.90  0.89  0.89  0.88  0.89  0.90  0.91  0.87  0.83  0.79  0.69  0.60  0.50  0.51  0.52  0.54  0.60  0.67  0.73
0.73  0.76  0.79  0.82  0.85  0.87  0.90  0.89  0.89  0.88  0.89  0.90  0.91  0.87  0.83  0.79  0.69  0.60  0.50  0.51  0.52  0.54  0.60  0.67  0.73
0.73  0.76  0.79  0.82  0.85  0.87  0.90  0.89  0.89  0.88  0.89  0.90  0.91  0.87  0.83  0.79  0.69  0.60  0.50  0.51  0.52  0.54  0.60  0.67  0.73
$ ilon ilat of the cell. lon: -93.75, 14.75
58   57
$ sizes of the cell in km
   161.407      179.728      201.695      232.103      205.032      184.910      166.792      184.910      205.032      232.103      201.695      179.728      161.407      179.728      201.695      232.103      205.032      184.910      166.792      184.910      205.032      232.103      201.695      179.728      161.407
$ mean alpha: 0.881333348592
$ mean beta: 0.92862744436
$alpha by ik, ith
0.87  0.87  0.87  0.87  0.87  0.87  0.87  0.89  0.91  0.93  0.91  0.89  0.87  0.87  0.87  0.87  0.87  0.87  0.87  0.89  0.91  0.93  0.91  0.89  0.87
0.87  0.87  0.87  0.87  0.87  0.87  0.87  0.89  0.91  0.93  0.91  0.89  0.87  0.87  0.87  0.87  0.87  0.87  0.87  0.89  0.91  0.93  0.91  0.89  0.87
0.87  0.87  0.87  0.87  0.87  0.87  0.87  0.89  0.91  0.93  0.91  0.89  0.87  0.87  0.87  0.87  0.87  0.87  0.87  0.89  0.91  0.93  0.91  0.89  0.87
0.87  0.87  0.87  0.87  0.87  0.87  0.87  0.89  0.91  0.93  0.91  0.89  0.87  0.87  0.87  0.87  0.87  0.87  0.87  0.89  0.91  0.93  0.91  0.89  0.87
0.87  0.87  0.87  0.87  0.87  0.87  0.87  0.89  0.91  0.93  0.91  0.89  0.87  0.87  0.87  0.87  0.87  0.87  0.87  0.89  0.91  0.93  0.91  0.89  0.87
0.87  0.87  0.87  0.87  0.87  0.87  0.87  0.89  0.91  0.93  0.91  0.89  0.87  0.87  0.87  0.87  0.87  0.87  0.87  0.89  0.91  0.93  0.91  0.89  0.87
0.87  0.87  0.87  0.87  0.87  0.87  0.87  0.89  0.91  0.93  0.91  0.89  0.87  0.87  0.87  0.87  0.87  0.87  0.87  0.89  0.91  0.93  0.91  0.89  0.87
0.87  0.87  0.87  0.87  0.87  0.87  0.87  0.89  0.91  0.93  0.91  0.89  0.87  0.87  0.87  0.87  0.87  0.87  0.87  0.89  0.91  0.93  0.91  0.89  0.87
0.87  0.87  0.87  0.87  0.87  0.87  0.87  0.89  0.91  0.93  0.91  0.89  0.87  0.87  0.87  0.87  0.87  0.87  0.87  0.89  0.91  0.93  0.91  0.89  0.87
0.87  0.87  0.87  0.87  0.87  0.87  0.87  0.89  0.91  0.93  0.91  0.89  0.87  0.87  0.87  0.87  0.87  0.87  0.87  0.89  0.91  0.93  0.91  0.89  0.87
0.87  0.87  0.87  0.87  0.87  0.87  0.87  0.89  0.91  0.93  0.91  0.89  0.87  0.87  0.87  0.87  0.87  0.87  0.87  0.89  0.91  0.93  0.91  0.89  0.87
0.87  0.87  0.87  0.87  0.87  0.87  0.87  0.89  0.91  0.93  0.91  0.89  0.87  0.87  0.87  0.87  0.87  0.87  0.87  0.89  0.91  0.93  0.91  0.89  0.87
0.87  0.87  0.87  0.87  0.87  0.87  0.87  0.89  0.91  0.93  0.91  0.89  0.87  0.87  0.87  0.87  0.87  0.87  0.87  0.89  0.91  0.93  0.91  0.89  0.87
0.87  0.87  0.87  0.87  0.87  0.87  0.87  0.89  0.91  0.93  0.91  0.89  0.87  0.87  0.87  0.87  0.87  0.87  0.87  0.89  0.91  0.93  0.91  0.89  0.87
0.87  0.87  0.87  0.87  0.87  0.87  0.87  0.89  0.91  0.93  0.91  0.89  0.87  0.87  0.87  0.87  0.87  0.87  0.87  0.89  0.91  0.93  0.91  0.89  0.87
0.87  0.87  0.87  0.87  0.87  0.87  0.87  0.89  0.91  0.93  0.91  0.89  0.87  0.87  0.87  0.87  0.87  0.87  0.87  0.89  0.91  0.93  0.91  0.89  0.87
0.87  0.87  0.87  0.87  0.87  0.87  0.87  0.89  0.91  0.93  0.91  0.89  0.87  0.87  0.87  0.87  0.87  0.87  0.87  0.89  0.91  0.93  0.91  0.89  0.87
0.87  0.87  0.87  0.87  0.87  0.87  0.87  0.89  0.91  0.93  0.91  0.89  0.87  0.87  0.87  0.87  0.87  0.87  0.87  0.89  0.91  0.93  0.91  0.89  0.87
0.87  0.87  0.87  0.87  0.87  0.87  0.87  0.89  0.91  0.93  0.91  0.89  0.87  0.87  0.87  0.87  0.87  0.87  0.87  0.89  0.91  0.93  0.91  0.89  0.87
0.87  0.87  0.87  0.87  0.87  0.87  0.87  0.89  0.91  0.93  0.91  0.89  0.87  0.87  0.87  0.87  0.87  0.87  0.87  0.89  0.91  0.93  0.91  0.89  0.87
0.87  0.87  0.87  0.87  0.87  0.87  0.87  0.89  0.91  0.93  0.91  0.89  0.87  0.87  0.87  0.87  0.87  0.87  0.87  0.89  0.91  0.93  0.91  0.89  0.87
0.87  0.87  0.87  0.87  0.87  0.87  0.87  0.89  0.91  0.93  0.91  0.89  0.87  0.87  0.87  0.87  0.87  0.87  0.87  0.89  0.91  0.93  0.91  0.89  0.87
0.87  0.87  0.87  0.87  0.87  0.87  0.87  0.89  0.91  0.93  0.91  0.89  0.87  0.87  0.87  0.87  0.87  0.87  0.87  0.89  0.91  0.93  0.91  0.89  0.87
0.87  0.87  0.87  0.87  0.87  0.87  0.87  0.89  0.91  0.93  0.91  0.89  0.87  0.87  0.87  0.87  0.87  0.87  0.87  0.89  0.91  0.93  0.91  0.89  0.87
0.87  0.87  0.87  0.87  0.87  0.87  0.87  0.89  0.91  0.93  0.91  0.89  0.87  0.87  0.87  0.87  0.87  0.87  0.87  0.89  0.91  0.93  0.91  0.89  0.87
$beta by ik, ith
0.98  0.98  0.98  0.98  0.98  0.98  0.98  0.97  0.96  0.95  0.92  0.89  0.87  0.85  0.84  0.83  0.84  0.85  0.87  0.89  0.92  0.95  0.96  0.97  0.98
0.98  0.98  0.98  0.98  0.98  0.98  0.98  0.97  0.96  0.95  0.92  0.89  0.87  0.85  0.84  0.83  0.84  0.85  0.87  0.89  0.92  0.95  0.96  0.97  0.98
0.98  0.98  0.98  0.98  0.98  0.98  0.98  0.97  0.96  0.95  0.92  0.89  0.87  0.85  0.84  0.83  0.84  0.85  0.87  0.89  0.92  0.95  0.96  0.97  0.98
0.98  0.98  0.98  0.98  0.98  0.98  0.98  0.97  0.96  0.95  0.92  0.89  0.87  0.85  0.84  0.83  0.84  0.85  0.87  0.89  0.92  0.95  0.96  0.97  0.98
0.98  0.98  0.98  0.98  0.98  0.98  0.98  0.97  0.96  0.95  0.92  0.89  0.87  0.85  0.84  0.83  0.84  0.85  0.87  0.89  0.92  0.95  0.96  0.97  0.98
0.98  0.98  0.98  0.98  0.98  0.98  0.98  0.97  0.96  0.95  0.92  0.89  0.87  0.85  0.84  0.83  0.84  0.85  0.87  0.89  0.92  0.95  0.96  0.97  0.98
0.98  0.98  0.98  0.98  0.98  0.98  0.98  0.97  0.96  0.95  0.92  0.89  0.87  0.85  0.84  0.83  0.84  0.85  0.87  0.89  0.92  0.95  0.96  0.97  0.98
0.98  0.98  0.98  0.98  0.98  0.98  0.98  0.97  0.96  0.95  0.92  0.89  0.87  0.85  0.84  0.83  0.84  0.85  0.87  0.89  0.92  0.95  0.96  0.97  0.98
0.98  0.98  0.98  0.98  0.98  0.98  0.98  0.97  0.96  0.95  0.92  0.89  0.87  0.85  0.84  0.83  0.84  0.85  0.87  0.89  0.92  0.95  0.96  0.97  0.98
0.98  0.98  0.98  0.98  0.98  0.98  0.98  0.97  0.96  0.95  0.92  0.89  0.87  0.85  0.84  0.83  0.84  0.85  0.87  0.89  0.92  0.95  0.96  0.97  0.98
0.98  0.98  0.98  0.98  0.98  0.98  0.98  0.97  0.96  0.95  0.92  0.89  0.87  0.85  0.84  0.83  0.84  0.85  0.87  0.89  0.92  0.95  0.96  0.97  0.98
0.98  0.98  0.98  0.98  0.98  0.98  0.98  0.97  0.96  0.95  0.92  0.89  0.87  0.85  0.84  0.83  0.84  0.85  0.87  0.89  0.92  0.95  0.96  0.97  0.98
0.98  0.98  0.98  0.98  0.98  0.98  0.98  0.97  0.96  0.95  0.92  0.89  0.87  0.85  0.84  0.83  0.84  0.85  0.87  0.89  0.92  0.95  0.96  0.97  0.98
0.98  0.98  0.98  0.98  0.98  0.98  0.98  0.97  0.96  0.95  0.92  0.89  0.87  0.85  0.84  0.83  0.84  0.85  0.87  0.89  0.92  0.95  0.96  0.97  0.98
0.98  0.98  0.98  0.98  0.98  0.98  0.98  0.97  0.96  0.95  0.92  0.89  0.87  0.85  0.84  0.83  0.84  0.85  0.87  0.89  0.92  0.95  0.96  0.97  0.98
0.98  0.98  0.98  0.98  0.98  0.98  0.98  0.97  0.96  0.95  0.92  0.89  0.87  0.85  0.84  0.83  0.84  0.85  0.87  0.89  0.92  0.95  0.96  0.97  0.98
0.98  0.98  0.98  0.98  0.98  0.98  0.98  0.97  0.96  0.95  0.92  0.89  0.87  0.85  0.84  0.83  0.84  0.85  0.87  0.89  0.92  0.95  0.96  0.97  0.98
0.98  0.98  0.98  0.98  0.98  0.98  0.98  0.97  0.96  0.95  0.92  0.89  0.87  0.85  0.84  0.83  0.84  0.85  0.87  0.89  0.92  0.95  0.96  0.97  0.98
0.98  0.98  0.98  0.98  0.98  0.98  0.98  0.97  0.96  0.95  0.92  0.89  0.87  0.85  0.84  0.83  0.84  0.85  0.87  0.89  0.92  0.95  0.96  0.97  0.98
0.98  0.98  0.98  0.98  0.98  0.98  0.98  0.97  0.96  0.95  0.92  0.89  0.87  0.85  0.84  0.83  0.84  0.85  0.87  0.89  0.92  0.95  0.96  0.97  0.98
0.98  0.98  0.98  0.98  0.98  0.98  0.98  0.97  0.96  0.95  0.92  0.89  0.87  0.85  0.84  0.83  0.84  0.85  0.87  0.89  0.92  0.95  0.96  0.97  0.98
0.98  0.98  0.98  0.98  0.98  0.98  0.98  0.97  0.96  0.95  0.92  0.89  0.87  0.85  0.84  0.83  0.84  0.85  0.87  0.89  0.92  0.95  0.96  0.97  0.98
0.98  0.98  0.98  0.98  0.98  0.98  0.98  0.97  0.96  0.95  0.92  0.89  0.87  0.85  0.84  0.83  0.84  0.85  0.87  0.89  0.92  0.95  0.96  0.97  0.98
0.98  0.98  0.98  0.98  0.98  0.98  0.98  0.97  0.96  0.95  0.92  0.89  0.87  0.85  0.84  0.83  0.84  0.85  0.87  0.89  0.92  0.95  0.96  0.97  0.98
0.98  0.98  0.98  0.98  0.98  0.98  0.98  0.97  0.96  0.95  0.92  0.89  0.87  0.85  0.84  0.83  0.84  0.85  0.87  0.89  0.92  0.95  0.96  0.97  0.98
$ ilon ilat of the cell. lon: -92.25, 14.75
59   57
$ sizes of the cell in km
   161.407      179.728      201.695      232.103      205.032      184.910      166.792      184.910      205.032      232.103      201.695      179.728      161.407      179.728      201.695      232.103      205.032      184.910      166.792      184.910      205.032      232.103      201.695      179.728      161.407
$ mean alpha: 0.111555638631
$ mean beta: 0.237639368938
$alpha by ik, ith
0.02  0.02  0.01  0.01  0.01  0.00  0.00  0.14  0.29  0.43  0.29  0.16  0.02  0.02  0.01  0.01  0.01  0.00  0.00  0.14  0.29  0.43  0.29  0.16  0.02
0.02  0.02  0.01  0.01  0.01  0.00  0.00  0.14  0.29  0.43  0.29  0.16  0.02  0.02  0.01  0.01  0.01  0.00  0.00  0.14  0.29  0.43  0.29  0.16  0.02
0.02  0.02  0.01  0.01  0.01  0.00  0.00  0.14  0.29  0.43  0.29  0.16  0.02  0.02  0.01  0.01  0.01  0.00  0.00  0.14  0.29  0.43  0.29  0.16  0.02
0.02  0.02  0.01  0.01  0.01  0.00  0.00  0.14  0.29  0.43  0.29  0.16  0.02  0.02  0.01  0.01  0.01  0.00  0.00  0.14  0.29  0.43  0.29  0.16  0.02
0.02  0.02  0.01  0.01  0.01  0.00  0.00  0.14  0.29  0.43  0.29  0.16  0.02  0.02  0.01  0.01  0.01  0.00  0.00  0.14  0.29  0.43  0.29  0.16  0.02
0.02  0.02  0.01  0.01  0.01  0.00  0.00  0.14  0.29  0.43  0.29  0.16  0.02  0.02  0.01  0.01  0.01  0.00  0.00  0.14  0.29  0.43  0.29  0.16  0.02
0.02  0.02  0.01  0.01  0.01  0.00  0.00  0.14  0.29  0.43  0.29  0.16  0.02  0.02  0.01  0.01  0.01  0.00  0.00  0.14  0.29  0.43  0.29  0.16  0.02
0.02  0.02  0.01  0.01  0.01  0.00  0.00  0.14  0.29  0.43  0.29  0.16  0.02  0.02  0.01  0.01  0.01  0.00  0.00  0.14  0.29  0.43  0.29  0.16  0.02
0.02  0.02  0.01  0.01  0.01  0.00  0.00  0.14  0.29  0.43  0.29  0.16  0.02  0.02  0.01  0.01  0.01  0.00  0.00  0.14  0.29  0.43  0.29  0.16  0.02
0.02  0.02  0.01  0.01  0.01  0.00  0.00  0.14  0.29  0.43  0.29  0.16  0.02  0.02  0.01  0.01  0.01  0.00  0.00  0.14  0.29  0.43  0.29  0.16  0.02
0.02  0.02  0.01  0.01  0.01  0.00  0.00  0.14  0.29  0.43  0.29  0.16  0.02  0.02  0.01  0.01  0.01  0.00  0.00  0.14  0.29  0.43  0.29  0.16  0.02
0.02  0.02  0.01  0.01  0.01  0.00  0.00  0.14  0.29  0.43  0.29  0.16  0.02  0.02  0.01  0.01  0.01  0.00  0.00  0.14  0.29  0.43  0.29  0.16  0.02
0.02  0.02  0.01  0.01  0.01  0.00  0.00  0.14  0.29  0.43  0.29  0.16  0.02  0.02  0.01  0.01  0.01  0.00  0.00  0.14  0.29  0.43  0.29  0.16  0.02
0.02  0.02  0.01  0.01  0.01  0.00  0.00  0.14  0.29  0.43  0.29  0.16  0.02  0.02  0.01  0.01  0.01  0.00  0.00  0.14  0.29  0.43  0.29  0.16  0.02
0.02  0.02  0.01  0.01  0.01  0.00  0.00  0.14  0.29  0.43  0.29  0.16  0.02  0.02  0.01  0.01  0.01  0.00  0.00  0.14  0.29  0.43  0.29  0.16  0.02
0.02  0.02  0.01  0.01  0.01  0.00  0.00  0.14  0.29  0.43  0.29  0.16  0.02  0.02  0.01  0.01  0.01  0.00  0.00  0.14  0.29  0.43  0.29  0.16  0.02
0.02  0.02  0.01  0.01  0.01  0.00  0.00  0.14  0.29  0.43  0.29  0.16  0.02  0.02  0.01  0.01  0.01  0.00  0.00  0.14  0.29  0.43  0.29  0.16  0.02
0.02  0.02  0.01  0.01  0.01  0.00  0.00  0.14  0.29  0.43  0.29  0.16  0.02  0.02  0.01  0.01  0.01  0.00  0.00  0.14  0.29  0.43  0.29  0.16  0.02
0.02  0.02  0.01  0.01  0.01  0.00  0.00  0.14  0.29  0.43  0.29  0.16  0.02  0.02  0.01  0.01  0.01  0.00  0.00  0.14  0.29  0.43  0.29  0.16  0.02
0.02  0.02  0.01  0.01  0.01  0.00  0.00  0.14  0.29  0.43  0.29  0.16  0.02  0.02  0.01  0.01  0.01  0.00  0.00  0.14  0.29  0.43  0.29  0.16  0.02
0.02  0.02  0.01  0.01  0.01  0.00  0.00  0.14  0.29  0.43  0.29  0.16  0.02  0.02  0.01  0.01  0.01  0.00  0.00  0.14  0.29  0.43  0.29  0.16  0.02
0.02  0.02  0.01  0.01  0.01  0.00  0.00  0.14  0.29  0.43  0.29  0.16  0.02  0.02  0.01  0.01  0.01  0.00  0.00  0.14  0.29  0.43  0.29  0.16  0.02
0.02  0.02  0.01  0.01  0.01  0.00  0.00  0.14  0.29  0.43  0.29  0.16  0.02  0.02  0.01  0.01  0.01  0.00  0.00  0.14  0.29  0.43  0.29  0.16  0.02
0.02  0.02  0.01  0.01  0.01  0.00  0.00  0.14  0.29  0.43  0.29  0.16  0.02  0.02  0.01  0.01  0.01  0.00  0.00  0.14  0.29  0.43  0.29  0.16  0.02
0.02  0.02  0.01  0.01  0.01  0.00  0.00  0.14  0.29  0.43  0.29  0.16  0.02  0.02  0.01  0.01  0.01  0.00  0.00  0.14  0.29  0.43  0.29  0.16  0.02
$beta by ik, ith
0.36  0.33  0.31  0.28  0.31  0.33  0.36  0.38  0.40  0.43  0.29  0.16  0.02  0.02  0.01  0.01  0.00  0.00  0.00  0.14  0.27  0.41  0.39  0.38  0.36
0.36  0.33  0.31  0.28  0.31  0.33  0.36  0.38  0.40  0.43  0.29  0.16  0.02  0.02  0.01  0.01  0.00  0.00  0.00  0.14  0.27  0.41  0.39  0.38  0.36
0.36  0.33  0.31  0.28  0.31  0.33  0.36  0.38  0.40  0.43  0.29  0.16  0.02  0.02  0.01  0.01  0.00  0.00  0.00  0.14  0.27  0.41  0.39  0.38  0.36
0.36  0.33  0.31  0.28  0.31  0.33  0.36  0.38  0.40  0.43  0.29  0.16  0.02  0.02  0.01  0.01  0.00  0.00  0.00  0.14  0.27  0.41  0.39  0.38  0.36
0.36  0.33  0.31  0.28  0.31  0.33  0.36  0.38  0.40  0.43  0.29  0.16  0.02  0.02  0.01  0.01  0.00  0.00  0.00  0.14  0.27  0.41  0.39  0.38  0.36
0.36  0.33  0.31  0.28  0.31  0.33  0.36  0.38  0.40  0.43  0.29  0.16  0.02  0.02  0.01  0.01  0.00  0.00  0.00  0.14  0.27  0.41  0.39  0.38  0.36
0.36  0.33  0.31  0.28  0.31  0.33  0.36  0.38  0.40  0.43  0.29  0.16  0.02  0.02  0.01  0.01  0.00  0.00  0.00  0.14  0.27  0.41  0.39  0.38  0.36
0.36  0.33  0.31  0.28  0.31  0.33  0.36  0.38  0.40  0.43  0.29  0.16  0.02  0.02  0.01  0.01  0.00  0.00  0.00  0.14  0.27  0.41  0.39  0.38  0.36
0.36  0.33  0.31  0.28  0.31  0.33  0.36  0.38  0.40  0.43  0.29  0.16  0.02  0.02  0.01  0.01  0.00  0.00  0.00  0.14  0.27  0.41  0.39  0.38  0.36
0.36  0.33  0.31  0.28  0.31  0.33  0.36  0.38  0.40  0.43  0.29  0.16  0.02  0.02  0.01  0.01  0.00  0.00  0.00  0.14  0.27  0.41  0.39  0.38  0.36
0.36  0.33  0.31  0.28  0.31  0.33  0.36  0.38  0.40  0.43  0.29  0.16  0.02  0.02  0.01  0.01  0.00  0.00  0.00  0.14  0.27  0.41  0.39  0.38  0.36
0.36  0.33  0.31  0.28  0.31  0.33  0.36  0.38  0.40  0.43  0.29  0.16  0.02  0.02  0.01  0.01  0.00  0.00  0.00  0.14  0.27  0.41  0.39  0.38  0.36
0.36  0.33  0.31  0.28  0.31  0.33  0.36  0.38  0.40  0.43  0.29  0.16  0.02  0.02  0.01  0.01  0.00  0.00  0.00  0.14  0.27  0.41  0.39  0.38  0.36
0.36  0.33  0.31  0.28  0.31  0.33  0.36  0.38  0.40  0.43  0.29  0.16  0.02  0.02  0.01  0.01  0.00  0.00  0.00  0.14  0.27  0.41  0.39  0.38  0.36
0.36  0.33  0.31  0.28  0.31  0.33  0.36  0.38  0.40  0.43  0.29  0.16  0.02  0.02  0.01  0.01  0.00  0.00  0.00  0.14  0.27  0.41  0.39  0.38  0.36
0.36  0.33  0.31  0.28  0.31  0.33  0.36  0.38  0.40  0.43  0.29  0.16  0.02  0.02  0.01  0.01  0.00  0.00  0.00  0.14  0.27  0.41  0.39  0.38  0.36
0.36  0.33  0.31  0.28  0.31  0.33  0.36  0.38  0.40  0.43  0.29  0.16  0.02  0.02  0.01  0.01  0.00  0.00  0.00  0.14  0.27  0.41  0.39  0.38  0.36
0.36  0.33  0.31  0.28  0.31  0.33  0.36  0.38  0.40  0.43  0.29  0.16  0.02  0.02  0.01  0.01  0.00  0.00  0.00  0.14  0.27  0.41  0.39  0.38  0.36
0.36  0.33  0.31  0.28  0.31  0.33  0.36  0.38  0.40  0.43  0.29  0.16  0.02  0.02  0.01  0.01  0.00  0.00  0.00  0.14  0.27  0.41  0.39  0.38  0.36
0.36  0.33  0.31  0.28  0.31  0.33  0.36  0.38  0.40  0.43  0.29  0.16  0.02  0.02  0.01  0.01  0.00  0.00  0.00  0.14  0.27  0.41  0.39  0.38  0.36
0.36  0.33  0.31  0.28  0.31  0.33  0.36  0.38  0.40  0.43  0.29  0.16  0.02  0.02  0.01  0.01  0.00  0.00  0.00  0.14  0.27  0.41  0.39  0.38  0.36
0.36  0.33  0.31  0.28  0.31  0.33  0.36  0.38  0.40  0.43  0.29  0.16  0.02  0.02  0.01  0.01  0.00  0.00  0.00  0.14  0.27  0.41  0.39  0.38  0.36
0.36  0.33  0.31  0.28  0.31  0.33  0.36  0.38  0.40  0.43  0.29  0.16  0.02  0.02  0.01  0.01  0.00  0.00  0.00  0.14  0.27  0.41  0.39  0.38  0.36
0.36  0.33  0.31  0.28  0.31  0.33  0.36  0.38  0.40  0.43  0.29  0.16  0.02  0.02  0.01  0.01  0.00  0.00  0.00  0.14  0.27  0.41  0.39  0.38  0.36
0.36  0.33  0.31  0.28  0.31  0.33  0.36  0.38  0.40  0.43  0.29  0.16  0.02  0.02  0.01  0.01  0.00  0.00  0.00  0.14  0.27  0.41  0.39  0.38  0.36
$ ilon ilat of the cell. lon: -92.25, 19.25
59   60
$ sizes of the cell in km
   157.610      175.805      198.208      229.479      203.895      184.639      166.792      184.639      203.895      229.479      198.208      175.805      157.610      175.805      198.208      229.479      203.895      184.639      166.792      184.639      203.895      229.479      198.208      175.805      157.610
$ mean alpha: 0.536000142415
$ mean beta: 0.688287983807
$alpha by ik, ith
0.80  0.75  0.70  0.65  0.49  0.33  0.17  0.27  0.38  0.48  0.59  0.69  0.80  0.75  0.70  0.65  0.49  0.33  0.17  0.27  0.38  0.48  0.59  0.69  0.80
0.80  0.75  0.70  0.65  0.49  0.33  0.17  0.27  0.38  0.48  0.59  0.69  0.80  0.75  0.70  0.65  0.49  0.33  0.17  0.27  0.38  0.48  0.59  0.69  0.80
0.80  0.75  0.70  0.65  0.49  0.33  0.17  0.27  0.38  0.48  0.59  0.69  0.80  0.75  0.70  0.65  0.49  0.33  0.17  0.27  0.38  0.48  0.59  0.69  0.80
0.80  0.75  0.70  0.65  0.49  0.33  0.17  0.27  0.38  0.48  0.59  0.69  0.80  0.75  0.70  0.65  0.49  0.33  0.17  0.27  0.38  0.48  0.59  0.69  0.80
0.80  0.75  0.70  0.65  0.49  0.33  0.17  0.27  0.38  0.48  0.59  0.69  0.80  0.75  0.70  0.65  0.49  0.33  0.17  0.27  0.38  0.48  0.59  0.69  0.80
0.80  0.75  0.70  0.65  0.49  0.33  0.17  0.27  0.38  0.48  0.59  0.69  0.80  0.75  0.70  0.65  0.49  0.33  0.17  0.27  0.38  0.48  0.59  0.69  0.80
0.80  0.75  0.70  0.65  0.49  0.33  0.17  0.27  0.38  0.48  0.59  0.69  0.80  0.75  0.70  0.65  0.49  0.33  0.17  0.27  0.38  0.48  0.59  0.69  0.80
0.80  0.75  0.70  0.65  0.49  0.33  0.17  0.27  0.38  0.48  0.59  0.69  0.80  0.75  0.70  0.65  0.49  0.33  0.17  0.27  0.38  0.48  0.59  0.69  0.80
0.80  0.75  0.70  0.65  0.49  0.33  0.17  0.27  0.38  0.48  0.59  0.69  0.80  0.75  0.70  0.65  0.49  0.33  0.17  0.27  0.38  0.48  0.59  0.69  0.80
0.80  0.75  0.70  0.65  0.49  0.33  0.17  0.27  0.38  0.48  0.59  0.69  0.80  0.75  0.70  0.65  0.49  0.33  0.17  0.27  0.38  0.48  0.59  0.69  0.80
0.80  0.75  0.70  0.65  0.49  0.33  0.17  0.27  0.38  0.48  0.59  0.69  0.80  0.75  0.70  0.65  0.49  0.33  0.17  0.27  0.38  0.48  0.59  0.69  0.80
0.80  0.75  0.70  0.65  0.49  0.33  0.17  0.27  0.38  0.48  0.59  0.69  0.80  0.75  0.70  0.65  0.49  0.33  0.17  0.27  0.38  0.48  0.59  0.69  0.80
0.80  0.75  0.70  0.65  0.49  0.33  0.17  0.27  0.38  0.48  0.59  0.69  0.80  0.75  0.70  0.65  0.49  0.33  0.17  0.27  0.38  0.48  0.59  0.69  0.80
0.80  0.75  0.70  0.65  0.49  0.33  0.17  0.27  0.38  0.48  0.59  0.69  0.80  0.75  0.70  0.65  0.49  0.33  0.17  0.27  0.38  0.48  0.59  0.69  0.80
0.80  0.75  0.70  0.65  0.49  0.33  0.17  0.27  0.38  0.48  0.59  0.69  0.80  0.75  0.70  0.65  0.49  0.33  0.17  0.27  0.38  0.48  0.59  0.69  0.80
0.80  0.75  0.70  0.65  0.49  0.33  0.17  0.27  0.38  0.48  0.59  0.69  0.80  0.75  0.70  0.65  0.49  0.33  0.17  0.27  0.38  0.48  0.59  0.69  0.80
0.80  0.75  0.70  0.65  0.49  0.33  0.17  0.27  0.38  0.48  0.59  0.69  0.80  0.75  0.70  0.65  0.49  0.33  0.17  0.27  0.38  0.48  0.59  0.69  0.80
0.80  0.75  0.70  0.65  0.49  0.33  0.17  0.27  0.38  0.48  0.59  0.69  0.80  0.75  0.70  0.65  0.49  0.33  0.17  0.27  0.38  0.48  0.59  0.69  0.80
0.80  0.75  0.70  0.65  0.49  0.33  0.17  0.27  0.38  0.48  0.59  0.69  0.80  0.75  0.70  0.65  0.49  0.33  0.17  0.27  0.38  0.48  0.59  0.69  0.80
0.80  0.75  0.70  0.65  0.49  0.33  0.17  0.27  0.38  0.48  0.59  0.69  0.80  0.75  0.70  0.65  0.49  0.33  0.17  0.27  0.38  0.48  0.59  0.69  0.80
0.80  0.75  0.70  0.65  0.49  0.33  0.17  0.27  0.38  0.48  0.59  0.69  0.80  0.75  0.70  0.65  0.49  0.33  0.17  0.27  0.38  0.48  0.59  0.69  0.80
0.80  0.75  0.70  0.65  0.49  0.33  0.17  0.27  0.38  0.48  0.59  0.69  0.80  0.75  0.70  0.65  0.49  0.33  0.17  0.27  0.38  0.48  0.59  0.69  0.80
0.80  0.75  0.70  0.65  0.49  0.33  0.17  0.27  0.38  0.48  0.59  0.69  0.80  0.75  0.70  0.65  0.49  0.33  0.17  0.27  0.38  0.48  0.59  0.69  0.80
0.80  0.75  0.70  0.65  0.49  0.33  0.17  0.27  0.38  0.48  0.59  0.69  0.80  0.75  0.70  0.65  0.49  0.33  0.17  0.27  0.38  0.48  0.59  0.69  0.80
0.80  0.75  0.70  0.65  0.49  0.33  0.17  0.27  0.38  0.48  0.59  0.69  0.80  0.75  0.70  0.65  0.49  0.33  0.17  0.27  0.38  0.48  0.59  0.69  0.80
$beta by ik, ith
0.88  0.80  0.72  0.64  0.49  0.34  0.18  0.27  0.37  0.46  0.58  0.70  0.82  0.82  0.82  0.83  0.83  0.84  0.84  0.83  0.81  0.79  0.82  0.85  0.88
0.88  0.80  0.72  0.64  0.49  0.34  0.18  0.27  0.37  0.46  0.58  0.70  0.82  0.82  0.82  0.83  0.83  0.84  0.84  0.83  0.81  0.79  0.82  0.85  0.88
0.88  0.80  0.72  0.64  0.49  0.34  0.18  0.27  0.37  0.46  0.58  0.70  0.82  0.82  0.82  0.83  0.83  0.84  0.84  0.83  0.81  0.79  0.82  0.85  0.88
0.88  0.80  0.72  0.64  0.49  0.34  0.18  0.27  0.37  0.46  0.58  0.70  0.82  0.82  0.82  0.83  0.83  0.84  0.84  0.83  0.81  0.79  0.82  0.85  0.88
0.88  0.80  0.72  0.64  0.49  0.34  0.18  0.27  0.37  0.46  0.58  0.70  0.82  0.82  0.82  0.83  0.83  0.84  0.84  0.83  0.81  0.79  0.82  0.85  0.88
0.88  0.80  0.72  0.64  0.49  0.34  0.18  0.27  0.37  0.46  0.58  0.70  0.82  0.82  0.82  0.83  0.83  0.84  0.84  0.83  0.81  0.79  0.82  0.85  0.88
0.88  0.80  0.72  0.64  0.49  0.34  0.18  0.27  0.37  0.46  0.58  0.70  0.82  0.82  0.82  0.83  0.83  0.84  0.84  0.83  0.81  0.79  0.82  0.85  0.88
0.88  0.80  0.72  0.64  0.49  0.34  0.18  0.27  0.37  0.46  0.58  0.70  0.82  0.82  0.82  0.83  0.83  0.84  0.84  0.83  0.81  0.79  0.82  0.85  0.88
0.88  0.80  0.72  0.64  0.49  0.34  0.18  0.27  0.37  0.46  0.58  0.70  0.82  0.82  0.82  0.83  0.83  0.84  0.84  0.83  0.81  0.79  0.82  0.85  0.88
0.88  0.80  0.72  0.64  0.49  0.34  0.18  0.27  0.37  0.46  0.58  0.70  0.82  0.82  0.82  0.83  0.83  0.84  0.84  0.83  0.81  0.79  0.82  0.85  0.88
0.88  0.80  0.72  0.64  0.49  0.34  0.18  0.27  0.37  0.46  0.58  0.70  0.82  0.82  0.82  0.83  0.83  0.84  0.84  0.83  0.81  0.79  0.82  0.85  0.88
0.88  0.80  0.72  0.64  0.49  0.34  0.18  0.27  0.37  0.46  0.58  0.70  0.82  0.82  0.82  0.83  0.83  0.84  0.84  0.83  0.81  0.79  0.82  0.85  0.88
0.88  0.80  0.72  0.64  0.49  0.34  0.18  0.27  0.37  0.46  0.58  0.70  0.82  0.82  0.82  0.83  0.83  0.84  0.84  0.83  0.81  0.79  0.82  0.85  0.88
0.88  0.80  0.72  0.64  0.49  0.34  0.18  0.27  0.37  0.46  0.58  0.70  0.82  0.82  0.82  0.83  0.83  0.84  0.84  0.83  0.81  0.79  0.82  0.85  0.88
0.88  0.80  0.72  0.64  0.49  0.34  0.18  0.27  0.37  0.46  0.58  0.70  0.82  0.82  0.82  0.83  0.83  0.84  0.84  0.83  0.81  0.79  0.82  0.85  0.88
0.88  0.80  0.72  0.64  0.49  0.34  0.18  0.27  0.37  0.46  0.58  0.70  0.82  0.82  0.82  0.83  0.83  0.84  0.84  0.83  0.81  0.79  0.82  0.85  0.88
0.88  0.80  0.72  0.64  0.49  0.34  0.18  0.27  0.37  0.46  0.58  0.70  0.82  0.82  0.82  0.83  0.83  0.84  0.84  0.83  0.81  0.79  0.82  0.85  0.88
0.88  0.80  0.72  0.64  0.49  0.34  0.18  0.27  0.37  0.46  0.58  0.70  0.82  0.82  0.82  0.83  0.83  0.84  0.84  0.83  0.81  0.79  0.82  0.85  0.88
0.88  0.80  0.72  0.64  0.49  0.34  0.18  0.27  0.37  0.46  0.58  0.70  0.82  0.82  0.82  0.83  0.83  0.84  0.84  0.83  0.81  0.79  0.82  0.85  0.88
0.88  0.80  0.72  0.64  0.49  0.34  0.18  0.27  0.37  0.46  0.58  0.70  0.82  0.82  0.82  0.83  0.83  0.84  0.84  0.83  0.81  0.79  0.82  0.85  0.88
0.88  0.80  0.72  0.64  0.49  0.34  0.18  0.27  0.37  0.46  0.58  0.70  0.82  0.82  0.82  0.83  0.83  0.84  0.84  0.83  0.81  0.79  0.82  0.85  0.88
0.88  0.80  0.72  0.64  0.49  0.34  0.18  0.27  0.37  0.46  0.58  0.70  0.82  0.82  0.82  0.83  0.83  0.84  0.84  0.83  0.81  0.79  0.82  0.85  0.88
0.88  0.80  0.72  0.64  0.49  0.34  0.18  0.27  0.37  0.46  0.58  0.70  0.82  0.82  0.82  0.83  0.83  0.84  0.84  0.83  0.81  0.79  0.82  0.85  0.88
0.88  0.80  0.72  0.64  0.49  0.34  0.18  0.27  0.37  0.46  0.58  0.70  0.82  0.82  0.82  0.83  0.83  0.84  0.84  0.83  0.81  0.79  0.82  0.85  0.88
0.88  0.80  0.72  0.64  0.49  0.34  0.18  0.27  0.37  0.46  0.58  0.70  0.82  0.82  0.82  0.83  0.83  0.84  0.84  0.83  0.81  0.79  0.82  0.85  0.88
$ ilon ilat of the cell. lon: -92.25, 20.75
59   61
$ sizes of the cell in km
   156.128      174.275      196.852      228.463      203.457      184.534      166.792      184.534      203.457      228.463      196.852      174.275      156.128      174.275      196.852      228.463      203.457      184.534      166.792      184.534      203.457      228.463      196.852      174.275      156.128
$ mean alpha: 0.955111551921
$ mean beta: 0.972459923219
$alpha by ik, ith
[...]
0.61  0.57  0.53  0.49  0.46  0.42  0.39  0.48  0.57  0.67  0.65  0.63  0.61  0.57  0.53  0.49  0.46  0.42  0.39  0.48  0.57  0.67  0.65  0.63  0.61
0.61  0.57  0.53  0.49  0.46  0.42  0.39  0.48  0.57  0.67  0.65  0.63  0.61  0.57  0.53  0.49  0.46  0.42  0.39  0.48  0.57  0.67  0.65  0.63  0.61
$beta by ik, ith
0.62  0.55  0.48  0.42  0.41  0.40  0.39  0.50  0.61  0.72  0.76  0.81  0.85  0.84  0.82  0.81  0.82  0.83  0.83  0.81  0.79  0.76  0.71  0.67  0.62
0.62  0.55  0.48  0.42  0.41  0.40  0.39  0.50  0.61  0.72  0.76  0.81  0.85  0.84  0.82  0.81  0.82  0.83  0.83  0.81  0.79  0.76  0.71  0.67  0.62
0.62  0.55  0.48  0.42  0.41  0.40  0.39  0.50  0.61  0.72  0.76  0.81  0.85  0.84  0.82  0.81  0.82  0.83  0.83  0.81  0.79  0.76  0.71  0.67  0.62
0.62  0.55  0.48  0.42  0.41  0.40  0.39  0.50  0.61  0.72  0.76  0.81  0.85  0.84  0.82  0.81  0.82  0.83  0.83  0.81  0.79  0.76  0.71  0.67  0.62
0.62  0.55  0.48  0.42  0.41  0.40  0.39  0.50  0.61  0.72  0.76  0.81  0.85  0.84  0.82  0.81  0.82  0.83  0.83  0.81  0.79  0.76  0.71  0.67  0.62
0.62  0.55  0.48  0.42  0.41  0.40  0.39  0.50  0.61  0.72  0.76  0.81  0.85  0.84  0.82  0.81  0.82  0.83  0.83  0.81  0.79  0.76  0.71  0.67  0.62
0.62  0.55  0.48  0.42  0.41  0.40  0.39  0.50  0.61  0.72  0.76  0.81  0.85  0.84  0.82  0.81  0.82  0.83  0.83  0.81  0.79  0.76  0.71  0.67  0.62
0.62  0.55  0.48  0.42  0.41  0.40  0.39  0.50  0.61  0.72  0.76  0.81  0.85  0.84  0.82  0.81  0.82  0.83  0.83  0.81  0.79  0.76  0.71  0.67  0.62
0.62  0.55  0.48  0.42  0.41  0.40  0.39  0.50  0.61  0.72  0.76  0.81  0.85  0.84  0.82  0.81  0.82  0.83  0.83  0.81  0.79  0.76  0.71  0.67  0.62
0.62  0.55  0.48  0.42  0.41  0.40  0.39  0.50  0.61  0.72  0.76  0.81  0.85  0.84  0.82  0.81  0.82  0.83  0.83  0.81  0.79  0.76  0.71  0.67  0.62
0.62  0.55  0.48  0.42  0.41  0.40  0.39  0.50  0.61  0.72  0.76  0.81  0.85  0.84  0.82  0.81  0.82  0.83  0.83  0.81  0.79  0.76  0.71  0.67  0.62
0.62  0.55  0.48  0.42  0.41  0.40  0.39  0.50  0.61  0.72  0.76  0.81  0.85  0.84  0.82  0.81  0.82  0.83  0.83  0.81  0.79  0.76  0.71  0.67  0.62
0.62  0.55  0.48  0.42  0.41  0.40  0.39  0.50  0.61  0.72  0.76  0.81  0.85  0.84  0.82  0.81  0.82  0.83  0.83  0.81  0.79  0.76  0.71  0.67  0.62
0.62  0.55  0.48  0.42  0.41  0.40  0.39  0.50  0.61  0.72  0.76  0.81  0.85  0.84  0.82  0.81  0.82  0.83  0.83  0.81  0.79  0.76  0.71  0.67  0.62
0.62  0.55  0.48  0.42  0.41  0.40  0.39  0.50  0.61  0.72  0.76  0.81  0.85  0.84  0.82  0.81  0.82  0.83  0.83  0.81  0.79  0.76  0.71  0.67  0.62
0.62  0.55  0.48  0.42  0.41  0.40  0.39  0.50  0.61  0.72  0.76  0.81  0.85  0.84  0.82  0.81  0.82  0.83  0.83  0.81  0.79  0.76  0.71  0.67  0.62
0.62  0.55  0.48  0.42  0.41  0.40  0.39  0.50  0.61  0.72  0.76  0.81  0.85  0.84  0.82  0.81  0.82  0.83  0.83  0.81  0.79  0.76  0.71  0.67  0.62
0.62  0.55  0.48  0.42  0.41  0.40  0.39  0.50  0.61  0.72  0.76  0.81  0.85  0.84  0.82  0.81  0.82  0.83  0.83  0.81  0.79  0.76  0.71  0.67  0.62
0.62  0.55  0.48  0.42  0.41  0.40  0.39  0.50  0.61  0.72  0.76  0.81  0.85  0.84  0.82  0.81  0.82  0.83  0.83  0.81  0.79  0.76  0.71  0.67  0.62
0.62  0.55  0.48  0.42  0.41  0.40  0.39  0.50  0.61  0.72  0.76  0.81  0.85  0.84  0.82  0.81  0.82  0.83  0.83  0.81  0.79  0.76  0.71  0.67  0.62
0.62  0.55  0.48  0.42  0.41  0.40  0.39  0.50  0.61  0.72  0.76  0.81  0.85  0.84  0.82  0.81  0.82  0.83  0.83  0.81  0.79  0.76  0.71  0.67  0.62
0.62  0.55  0.48  0.42  0.41  0.40  0.39  0.50  0.61  0.72  0.76  0.81  0.85  0.84  0.82  0.81  0.82  0.83  0.83  0.81  0.79  0.76  0.71  0.67  0.62
0.62  0.55  0.48  0.42  0.41  0.40  0.39  0.50  0.61  0.72  0.76  0.81  0.85  0.84  0.82  0.81  0.82  0.83  0.83  0.81  0.79  0.76  0.71  0.67  0.62
0.62  0.55  0.48  0.42  0.41  0.40  0.39  0.50  0.61  0.72  0.76  0.81  0.85  0.84  0.82  0.81  0.82  0.83  0.83  0.81  0.79  0.76  0.71  0.67  0.62
0.62  0.55  0.48  0.42  0.41  0.40  0.39  0.50  0.61  0.72  0.76  0.81  0.85  0.84  0.82  0.81  0.82  0.83  0.83  0.81  0.79  0.76  0.71  0.67  0.62
$ ilon ilat of the cell. lon: -59.25, 13.25
81   56
$ sizes of the cell in km
   162.452      180.809      202.660      232.831      205.349      184.985      166.792      184.985      205.349      232.831      202.660      180.809      162.452      180.809      202.660      232.831      205.349      184.985      166.792      184.985      205.349      232.831      202.660      180.809      162.452
$ mean alpha: 0.845333267212
$ mean beta: 0.900681807299
$alpha by ik, ith
0.80  0.82  0.83  0.85  0.84  0.84  0.83  0.86  0.88  0.91  0.87  0.84  0.80  0.82  0.83  0.85  0.84  0.84  0.83  0.86  0.88  0.91  0.87  0.84  0.80
0.80  0.82  0.83  0.85  0.84  0.84  0.83  0.86  0.88  0.91  0.87  0.84  0.80  0.82  0.83  0.85  0.84  0.84  0.83  0.86  0.88  0.91  0.87  0.84  0.80
0.80  0.82  0.83  0.85  0.84  0.84  0.83  0.86  0.88  0.91  0.87  0.84  0.80  0.82  0.83  0.85  0.84  0.84  0.83  0.86  0.88  0.91  0.87  0.84  0.80
0.80  0.82  0.83  0.85  0.84  0.84  0.83  0.86  0.88  0.91  0.87  0.84  0.80  0.82  0.83  0.85  0.84  0.84  0.83  0.86  0.88  0.91  0.87  0.84  0.80
0.80  0.82  0.83  0.85  0.84  0.84  0.83  0.86  0.88  0.91  0.87  0.84  0.80  0.82  0.83  0.85  0.84  0.84  0.83  0.86  0.88  0.91  0.87  0.84  0.80
0.80  0.82  0.83  0.85  0.84  0.84  0.83  0.86  0.88  0.91  0.87  0.84  0.80  0.82  0.83  0.85  0.84  0.84  0.83  0.86  0.88  0.91  0.87  0.84  0.80
0.80  0.82  0.83  0.85  0.84  0.84  0.83  0.86  0.88  0.91  0.87  0.84  0.80  0.82  0.83  0.85  0.84  0.84  0.83  0.86  0.88  0.91  0.87  0.84  0.80
0.80  0.82  0.83  0.85  0.84  0.84  0.83  0.86  0.88  0.91  0.87  0.84  0.80  0.82  0.83  0.85  0.84  0.84  0.83  0.86  0.88  0.91  0.87  0.84  0.80
0.80  0.82  0.83  0.85  0.84  0.84  0.83  0.86  0.88  0.91  0.87  0.84  0.80  0.82  0.83  0.85  0.84  0.84  0.83  0.86  0.88  0.91  0.87  0.84  0.80
0.80  0.82  0.83  0.85  0.84  0.84  0.83  0.86  0.88  0.91  0.87  0.84  0.80  0.82  0.83  0.85  0.84  0.84  0.83  0.86  0.88  0.91  0.87  0.84  0.80
0.80  0.82  0.83  0.85  0.84  0.84  0.83  0.86  0.88  0.91  0.87  0.84  0.80  0.82  0.83  0.85  0.84  0.84  0.83  0.86  0.88  0.91  0.87  0.84  0.80
0.80  0.82  0.83  0.85  0.84  0.84  0.83  0.86  0.88  0.91  0.87  0.84  0.80  0.82  0.83  0.85  0.84  0.84  0.83  0.86  0.88  0.91  0.87  0.84  0.80
0.80  0.82  0.83  0.85  0.84  0.84  0.83  0.86  0.88  0.91  0.87  0.84  0.80  0.82  0.83  0.85  0.84  0.84  0.83  0.86  0.88  0.91  0.87  0.84  0.80
0.80  0.82  0.83  0.85  0.84  0.84  0.83  0.86  0.88  0.91  0.87  0.84  0.80  0.82  0.83  0.85  0.84  0.84  0.83  0.86  0.88  0.91  0.87  0.84  0.80
0.80  0.82  0.83  0.85  0.84  0.84  0.83  0.86  0.88  0.91  0.87  0.84  0.80  0.82  0.83  0.85  0.84  0.84  0.83  0.86  0.88  0.91  0.87  0.84  0.80
0.80  0.82  0.83  0.85  0.84  0.84  0.83  0.86  0.88  0.91  0.87  0.84  0.80  0.82  0.83  0.85  0.84  0.84  0.83  0.86  0.88  0.91  0.87  0.84  0.80
0.80  0.82  0.83  0.85  0.84  0.84  0.83  0.86  0.88  0.91  0.87  0.84  0.80  0.82  0.83  0.85  0.84  0.84  0.83  0.86  0.88  0.91  0.87  0.84  0.80
0.80  0.82  0.83  0.85  0.84  0.84  0.83  0.86  0.88  0.91  0.87  0.84  0.80  0.82  0.83  0.85  0.84  0.84  0.83  0.86  0.88  0.91  0.87  0.84  0.80
0.80  0.82  0.83  0.85  0.84  0.84  0.83  0.86  0.88  0.91  0.87  0.84  0.80  0.82  0.83  0.85  0.84  0.84  0.83  0.86  0.88  0.91  0.87  0.84  0.80
0.80  0.82  0.83  0.85  0.84  0.84  0.83  0.86  0.88  0.91  0.87  0.84  0.80  0.82  0.83  0.85  0.84  0.84  0.83  0.86  0.88  0.91  0.87  0.84  0.80
0.80  0.82  0.83  0.85  0.84  0.84  0.83  0.86  0.88  0.91  0.87  0.84  0.80  0.82  0.83  0.85  0.84  0.84  0.83  0.86  0.88  0.91  0.87  0.84  0.80
0.80  0.82  0.83  0.85  0.84  0.84  0.83  0.86  0.88  0.91  0.87  0.84  0.80  0.82  0.83  0.85  0.84  0.84  0.83  0.86  0.88  0.91  0.87  0.84  0.80
0.80  0.82  0.83  0.85  0.84  0.84  0.83  0.86  0.88  0.91  0.87  0.84  0.80  0.82  0.83  0.85  0.84  0.84  0.83  0.86  0.88  0.91  0.87  0.84  0.80
0.80  0.82  0.83  0.85  0.84  0.84  0.83  0.86  0.88  0.91  0.87  0.84  0.80  0.82  0.83  0.85  0.84  0.84  0.83  0.86  0.88  0.91  0.87  0.84  0.80
0.80  0.82  0.83  0.85  0.84  0.84  0.83  0.86  0.88  0.91  0.87  0.84  0.80  0.82  0.83  0.85  0.84  0.84  0.83  0.86  0.88  0.91  0.87  0.84  0.80
$beta by ik, ith
0.84  0.86  0.87  0.88  0.88  0.89  0.89  0.91  0.92  0.94  0.93  0.93  0.92  0.92  0.92  0.92  0.92  0.91  0.90  0.91  0.92  0.92  0.90  0.87  0.84
0.84  0.86  0.87  0.88  0.88  0.89  0.89  0.91  0.92  0.94  0.93  0.93  0.92  0.92  0.92  0.92  0.92  0.91  0.90  0.91  0.92  0.92  0.90  0.87  0.84
0.84  0.86  0.87  0.88  0.88  0.89  0.89  0.91  0.92  0.94  0.93  0.93  0.92  0.92  0.92  0.92  0.92  0.91  0.90  0.91  0.92  0.92  0.90  0.87  0.84
0.84  0.86  0.87  0.88  0.88  0.89  0.89  0.91  0.92  0.94  0.93  0.93  0.92  0.92  0.92  0.92  0.92  0.91  0.90  0.91  0.92  0.92  0.90  0.87  0.84
0.84  0.86  0.87  0.88  0.88  0.89  0.89  0.91  0.92  0.94  0.93  0.93  0.92  0.92  0.92  0.92  0.92  0.91  0.90  0.91  0.92  0.92  0.90  0.87  0.84
0.84  0.86  0.87  0.88  0.88  0.89  0.89  0.91  0.92  0.94  0.93  0.93  0.92  0.92  0.92  0.92  0.92  0.91  0.90  0.91  0.92  0.92  0.90  0.87  0.84
0.84  0.86  0.87  0.88  0.88  0.89  0.89  0.91  0.92  0.94  0.93  0.93  0.92  0.92  0.92  0.92  0.92  0.91  0.90  0.91  0.92  0.92  0.90  0.87  0.84
0.84  0.86  0.87  0.88  0.88  0.89  0.89  0.91  0.92  0.94  0.93  0.93  0.92  0.92  0.92  0.92  0.92  0.91  0.90  0.91  0.92  0.92  0.90  0.87  0.84
0.84  0.86  0.87  0.88  0.88  0.89  0.89  0.91  0.92  0.94  0.93  0.93  0.92  0.92  0.92  0.92  0.92  0.91  0.90  0.91  0.92  0.92  0.90  0.87  0.84
0.84  0.86  0.87  0.88  0.88  0.89  0.89  0.91  0.92  0.94  0.93  0.93  0.92  0.92  0.92  0.92  0.92  0.91  0.90  0.91  0.92  0.92  0.90  0.87  0.84
0.84  0.86  0.87  0.88  0.88  0.89  0.89  0.91  0.92  0.94  0.93  0.93  0.92  0.92  0.92  0.92  0.92  0.91  0.90  0.91  0.92  0.92  0.90  0.87  0.84
0.84  0.86  0.87  0.88  0.88  0.89  0.89  0.91  0.92  0.94  0.93  0.93  0.92  0.92  0.92  0.92  0.92  0.91  0.90  0.91  0.92  0.92  0.90  0.87  0.84
0.84  0.86  0.87  0.88  0.88  0.89  0.89  0.91  0.92  0.94  0.93  0.93  0.92  0.92  0.92  0.92  0.92  0.91  0.90  0.91  0.92  0.92  0.90  0.87  0.84
0.84  0.86  0.87  0.88  0.88  0.89  0.89  0.91  0.92  0.94  0.93  0.93  0.92  0.92  0.92  0.92  0.92  0.91  0.90  0.91  0.92  0.92  0.90  0.87  0.84
0.84  0.86  0.87  0.88  0.88  0.89  0.89  0.91  0.92  0.94  0.93  0.93  0.92  0.92  0.92  0.92  0.92  0.91  0.90  0.91  0.92  0.92  0.90  0.87  0.84
0.84  0.86  0.87  0.88  0.88  0.89  0.89  0.91  0.92  0.94  0.93  0.93  0.92  0.92  0.92  0.92  0.92  0.91  0.90  0.91  0.92  0.92  0.90  0.87  0.84
0.84  0.86  0.87  0.88  0.88  0.89  0.89  0.91  0.92  0.94  0.93  0.93  0.92  0.92  0.92  0.92  0.92  0.91  0.90  0.91  0.92  0.92  0.90  0.87  0.84
0.84  0.86  0.87  0.88  0.88  0.89  0.89  0.91  0.92  0.94  0.93  0.93  0.92  0.92  0.92  0.92  0.92  0.91  0.90  0.91  0.92  0.92  0.90  0.87  0.84
0.84  0.86  0.87  0.88  0.88  0.89  0.89  0.91  0.92  0.94  0.93  0.93  0.92  0.92  0.92  0.92  0.92  0.91  0.90  0.91  0.92  0.92  0.90  0.87  0.84
0.84  0.86  0.87  0.88  0.88  0.89  0.89  0.91  0.92  0.94  0.93  0.93  0.92  0.92  0.92  0.92  0.92  0.91  0.90  0.91  0.92  0.92  0.90  0.87  0.84
0.84  0.86  0.87  0.88  0.88  0.89  0.89  0.91  0.92  0.94  0.93  0.93  0.92  0.92  0.92  0.92  0.92  0.91  0.90  0.91  0.92  0.92  0.90  0.87  0.84
0.84  0.86  0.87  0.88  0.88  0.89  0.89  0.91  0.92  0.94  0.93  0.93  0.92  0.92  0.92  0.92  0.92  0.91  0.90  0.91  0.92  0.92  0.90  0.87  0.84
0.84  0.86  0.87  0.88  0.88  0.89  0.89  0.91  0.92  0.94  0.93  0.93  0.92  0.92  0.92  0.92  0.92  0.91  0.90  0.91  0.92  0.92  0.90  0.87  0.84
0.84  0.86  0.87  0.88  0.88  0.89  0.89  0.91  0.92  0.94  0.93  0.93  0.92  0.92  0.92  0.92  0.92  0.91  0.90  0.91  0.92  0.92  0.90  0.87  0.84
0.84  0.86  0.87  0.88  0.88  0.89  0.89  0.91  0.92  0.94  0.93  0.93  0.92  0.92  0.92  0.92  0.92  0.91  0.90  0.91  0.92  0.92  0.90  0.87  0.84
$ ilon ilat of the cell. lon: -57.75, 7.25
82   52
$ sizes of the cell in km
   165.513      183.979      205.493      234.977      206.285      185.210      166.792      185.210      206.285      234.977      205.493      183.979      165.513      183.979      205.493      234.977      206.285      185.210      166.792      185.210      206.285      234.977      205.493      183.979      165.513
$ mean alpha: 0.488444488525
$ mean beta: 0.635159564022
$alpha by ik, ith
0.41  0.41  0.42  0.42  0.43  0.43  0.43  0.52  0.61  0.70  0.60  0.51  0.41  0.41  0.42  0.42  0.43  0.43  0.43  0.52  0.61  0.70  0.60  0.51  0.41
0.41  0.41  0.42  0.42  0.43  0.43  0.43  0.52  0.61  0.70  0.60  0.51  0.41  0.41  0.42  0.42  0.43  0.43  0.43  0.52  0.61  0.70  0.60  0.51  0.41
0.41  0.41  0.42  0.42  0.43  0.43  0.43  0.52  0.61  0.70  0.60  0.51  0.41  0.41  0.42  0.42  0.43  0.43  0.43  0.52  0.61  0.70  0.60  0.51  0.41
0.41  0.41  0.42  0.42  0.43  0.43  0.43  0.52  0.61  0.70  0.60  0.51  0.41  0.41  0.42  0.42  0.43  0.43  0.43  0.52  0.61  0.70  0.60  0.51  0.41
0.41  0.41  0.42  0.42  0.43  0.43  0.43  0.52  0.61  0.70  0.60  0.51  0.41  0.41  0.42  0.42  0.43  0.43  0.43  0.52  0.61  0.70  0.60  0.51  0.41
0.41  0.41  0.42  0.42  0.43  0.43  0.43  0.52  0.61  0.70  0.60  0.51  0.41  0.41  0.42  0.42  0.43  0.43  0.43  0.52  0.61  0.70  0.60  0.51  0.41
0.41  0.41  0.42  0.42  0.43  0.43  0.43  0.52  0.61  0.70  0.60  0.51  0.41  0.41  0.42  0.42  0.43  0.43  0.43  0.52  0.61  0.70  0.60  0.51  0.41
0.41  0.41  0.42  0.42  0.43  0.43  0.43  0.52  0.61  0.70  0.60  0.51  0.41  0.41  0.42  0.42  0.43  0.43  0.43  0.52  0.61  0.70  0.60  0.51  0.41
0.41  0.41  0.42  0.42  0.43  0.43  0.43  0.52  0.61  0.70  0.60  0.51  0.41  0.41  0.42  0.42  0.43  0.43  0.43  0.52  0.61  0.70  0.60  0.51  0.41
0.41  0.41  0.42  0.42  0.43  0.43  0.43  0.52  0.61  0.70  0.60  0.51  0.41  0.41  0.42  0.42  0.43  0.43  0.43  0.52  0.61  0.70  0.60  0.51  0.41
0.41  0.41  0.42  0.42  0.43  0.43  0.43  0.52  0.61  0.70  0.60  0.51  0.41  0.41  0.42  0.42  0.43  0.43  0.43  0.52  0.61  0.70  0.60  0.51  0.41
0.41  0.41  0.42  0.42  0.43  0.43  0.43  0.52  0.61  0.70  0.60  0.51  0.41  0.41  0.42  0.42  0.43  0.43  0.43  0.52  0.61  0.70  0.60  0.51  0.41
0.41  0.41  0.42  0.42  0.43  0.43  0.43  0.52  0.61  0.70  0.60  0.51  0.41  0.41  0.42  0.42  0.43  0.43  0.43  0.52  0.61  0.70  0.60  0.51  0.41
0.41  0.41  0.42  0.42  0.43  0.43  0.43  0.52  0.61  0.70  0.60  0.51  0.41  0.41  0.42  0.42  0.43  0.43  0.43  0.52  0.61  0.70  0.60  0.51  0.41
0.41  0.41  0.42  0.42  0.43  0.43  0.43  0.52  0.61  0.70  0.60  0.51  0.41  0.41  0.42  0.42  0.43  0.43  0.43  0.52  0.61  0.70  0.60  0.51  0.41
0.41  0.41  0.42  0.42  0.43  0.43  0.43  0.52  0.61  0.70  0.60  0.51  0.41  0.41  0.42  0.42  0.43  0.43  0.43  0.52  0.61  0.70  0.60  0.51  0.41
0.41  0.41  0.42  0.42  0.43  0.43  0.43  0.52  0.61  0.70  0.60  0.51  0.41  0.41  0.42  0.42  0.43  0.43  0.43  0.52  0.61  0.70  0.60  0.51  0.41
0.41  0.41  0.42  0.42  0.43  0.43  0.43  0.52  0.61  0.70  0.60  0.51  0.41  0.41  0.42  0.42  0.43  0.43  0.43  0.52  0.61  0.70  0.60  0.51  0.41
0.41  0.41  0.42  0.42  0.43  0.43  0.43  0.52  0.61  0.70  0.60  0.51  0.41  0.41  0.42  0.42  0.43  0.43  0.43  0.52  0.61  0.70  0.60  0.51  0.41
0.41  0.41  0.42  0.42  0.43  0.43  0.43  0.52  0.61  0.70  0.60  0.51  0.41  0.41  0.42  0.42  0.43  0.43  0.43  0.52  0.61  0.70  0.60  0.51  0.41
0.41  0.41  0.42  0.42  0.43  0.43  0.43  0.52  0.61  0.70  0.60  0.51  0.41  0.41  0.42  0.42  0.43  0.43  0.43  0.52  0.61  0.70  0.60  0.51  0.41
0.41  0.41  0.42  0.42  0.43  0.43  0.43  0.52  0.61  0.70  0.60  0.51  0.41  0.41  0.42  0.42  0.43  0.43  0.43  0.52  0.61  0.70  0.60  0.51  0.41
0.41  0.41  0.42  0.42  0.43  0.43  0.43  0.52  0.61  0.70  0.60  0.51  0.41  0.41  0.42  0.42  0.43  0.43  0.43  0.52  0.61  0.70  0.60  0.51  0.41
0.41  0.41  0.42  0.42  0.43  0.43  0.43  0.52  0.61  0.70  0.60  0.51  0.41  0.41  0.42  0.42  0.43  0.43  0.43  0.52  0.61  0.70  0.60  0.51  0.41
0.41  0.41  0.42  0.42  0.43  0.43  0.43  0.52  0.61  0.70  0.60  0.51  0.41  0.41  0.42  0.42  0.43  0.43  0.43  0.52  0.61  0.70  0.60  0.51  0.41
$beta by ik, ith
0.41  0.39  0.36  0.33  0.37  0.40  0.43  0.54  0.65  0.75  0.78  0.81  0.84  0.83  0.81  0.80  0.81  0.83  0.84  0.81  0.78  0.74  0.63  0.52  0.41
0.41  0.39  0.36  0.33  0.37  0.40  0.43  0.54  0.65  0.75  0.78  0.81  0.84  0.83  0.81  0.80  0.81  0.83  0.84  0.81  0.78  0.74  0.63  0.52  0.41
0.41  0.39  0.36  0.33  0.37  0.40  0.43  0.54  0.65  0.75  0.78  0.81  0.84  0.83  0.81  0.80  0.81  0.83  0.84  0.81  0.78  0.74  0.63  0.52  0.41
0.41  0.39  0.36  0.33  0.37  0.40  0.43  0.54  0.65  0.75  0.78  0.81  0.84  0.83  0.81  0.80  0.81  0.83  0.84  0.81  0.78  0.74  0.63  0.52  0.41
0.41  0.39  0.36  0.33  0.37  0.40  0.43  0.54  0.65  0.75  0.78  0.81  0.84  0.83  0.81  0.80  0.81  0.83  0.84  0.81  0.78  0.74  0.63  0.52  0.41
0.41  0.39  0.36  0.33  0.37  0.40  0.43  0.54  0.65  0.75  0.78  0.81  0.84  0.83  0.81  0.80  0.81  0.83  0.84  0.81  0.78  0.74  0.63  0.52  0.41
0.41  0.39  0.36  0.33  0.37  0.40  0.43  0.54  0.65  0.75  0.78  0.81  0.84  0.83  0.81  0.80  0.81  0.83  0.84  0.81  0.78  0.74  0.63  0.52  0.41
0.41  0.39  0.36  0.33  0.37  0.40  0.43  0.54  0.65  0.75  0.78  0.81  0.84  0.83  0.81  0.80  0.81  0.83  0.84  0.81  0.78  0.74  0.63  0.52  0.41
0.41  0.39  0.36  0.33  0.37  0.40  0.43  0.54  0.65  0.75  0.78  0.81  0.84  0.83  0.81  0.80  0.81  0.83  0.84  0.81  0.78  0.74  0.63  0.52  0.41
0.41  0.39  0.36  0.33  0.37  0.40  0.43  0.54  0.65  0.75  0.78  0.81  0.84  0.83  0.81  0.80  0.81  0.83  0.84  0.81  0.78  0.74  0.63  0.52  0.41
0.41  0.39  0.36  0.33  0.37  0.40  0.43  0.54  0.65  0.75  0.78  0.81  0.84  0.83  0.81  0.80  0.81  0.83  0.84  0.81  0.78  0.74  0.63  0.52  0.41
0.41  0.39  0.36  0.33  0.37  0.40  0.43  0.54  0.65  0.75  0.78  0.81  0.84  0.83  0.81  0.80  0.81  0.83  0.84  0.81  0.78  0.74  0.63  0.52  0.41
0.41  0.39  0.36  0.33  0.37  0.40  0.43  0.54  0.65  0.75  0.78  0.81  0.84  0.83  0.81  0.80  0.81  0.83  0.84  0.81  0.78  0.74  0.63  0.52  0.41
0.41  0.39  0.36  0.33  0.37  0.40  0.43  0.54  0.65  0.75  0.78  0.81  0.84  0.83  0.81  0.80  0.81  0.83  0.84  0.81  0.78  0.74  0.63  0.52  0.41
0.41  0.39  0.36  0.33  0.37  0.40  0.43  0.54  0.65  0.75  0.78  0.81  0.84  0.83  0.81  0.80  0.81  0.83  0.84  0.81  0.78  0.74  0.63  0.52  0.41
0.41  0.39  0.36  0.33  0.37  0.40  0.43  0.54  0.65  0.75  0.78  0.81  0.84  0.83  0.81  0.80  0.81  0.83  0.84  0.81  0.78  0.74  0.63  0.52  0.41
0.41  0.39  0.36  0.33  0.37  0.40  0.43  0.54  0.65  0.75  0.78  0.81  0.84  0.83  0.81  0.80  0.81  0.83  0.84  0.81  0.78  0.74  0.63  0.52  0.41
0.41  0.39  0.36  0.33  0.37  0.40  0.43  0.54  0.65  0.75  0.78  0.81  0.84  0.83  0.81  0.80  0.81  0.83  0.84  0.81  0.78  0.74  0.63  0.52  0.41
0.41  0.39  0.36  0.33  0.37  0.40  0.43  0.54  0.65  0.75  0.78  0.81  0.84  0.83  0.81  0.80  0.81  0.83  0.84  0.81  0.78  0.74  0.63  0.52  0.41
0.41  0.39  0.36  0.33  0.37  0.40  0.43  0.54  0.65  0.75  0.78  0.81  0.84  0.83  0.81  0.80  0.81  0.83  0.84  0.81  0.78  0.74  0.63  0.52  0.41
0.41  0.39  0.36  0.33  0.37  0.40  0.43  0.54  0.65  0.75  0.78  0.81  0.84  0.83  0.81  0.80  0.81  0.83  0.84  0.81  0.78  0.74  0.63  0.52  0.41
0.41  0.39  0.36  0.33  0.37  0.40  0.43  0.54  0.65  0.75  0.78  0.81  0.84  0.83  0.81  0.80  0.81  0.83  0.84  0.81  0.78  0.74  0.63  0.52  0.41
0.41  0.39  0.36  0.33  0.37  0.40  0.43  0.54  0.65  0.75  0.78  0.81  0.84  0.83  0.81  0.80  0.81  0.83  0.84  0.81  0.78  0.74  0.63  0.52  0.41
0.41  0.39  0.36  0.33  0.37  0.40  0.43  0.54  0.65  0.75  0.78  0.81  0.84  0.83  0.81  0.80  0.81  0.83  0.84  0.81  0.78  0.74  0.63  0.52  0.41
0.41  0.39  0.36  0.33  0.37  0.40  0.43  0.54  0.65  0.75  0.78  0.81  0.84  0.83  0.81  0.80  0.81  0.83  0.84  0.81  0.78  0.74  0.63  0.52  0.41
