$ -------------------------------------------------------------------- $
$ WAVEWATCH III Grid preprocessor input file                           $
$ -------------------------------------------------------------------- $
$
  'Running g_glb040 simulation   '
$
$ Frequency increment factor and first frequency (Hz) ---------------- $
   1.1  0.04118  25  24  0.
$ Set model flags ---------------------------------------------------- $
   F T T T F T
$
$ Set time steps ----------------------------------------------------- $
    1800. 300. 300. 10.
$
$ Start of namelist input section ------------------------------------ $
  &MISC FLAGTR = 4 /
  &SIN4 BETAMAX = 1.33 /
$
END OF NAMELISTS
$
$ Define grid -------------------------------------------------------- $
     'RECT'  T  'SMPL'
         900 	 351 
          0.40 	  0.40 	  1.00 
         -180.0000 	 -70.0000 	  1.00
	 -0.10   10  20  0.001  1  1 '(....)'  NAME  'g_glb040.bot' 
	 21  0.01  1  1  '(....)'  NAME  'g_glb040.obst'    
	 22             1  1 '(....)'  NAME  'g_glb040.mask'
$
     0.    0.    0.    0.       0
$
$ -------------------------------------------------------------------- $
$ End of input file                                                    $
$ -------------------------------------------------------------------- $
