$ -------------------------------------------------------------------- $
$ WAVEWATCH III Grid preprocessor input file                           $
$ -------------------------------------------------------------------- $
$
  g_glb150
$
$ Frequency increment factor and first frequency (Hz) ---------------- $
   1.1  0.04118  25  24  0.
$ Set model flags ---------------------------------------------------- $
   F T T T F T
$
$ Set time steps ----------------------------------------------------- $
    1800. 1800. 600. 10.
$
$ Start of namelist input section ------------------------------------ $
  &MISC FLAGTR = 4 /
  &SIN4 BETAMAX = 1.33 /
$
END OF NAMELISTS
$
$ Define grid -------------------------------------------------------- $
     'RECT'  T  'SMPL'
	 240 	 94 
	 1.5 	 1.5 	       1.00 
	 -180 	 -70 	  1.00
	 -0.10   25  20  0.001  1  1 '(....)'  NAME  'g_glb150.bot' 
	 21  0.01  1  1  '(....)'  NAME  'g_glb150.obst'    
	 22             1  1 '(....)'  NAME  'g_glb150.mask'
$
     0.    0.    0.    0.       0
$
$ -------------------------------------------------------------------- $
$ End of input file                                                    $
$ -------------------------------------------------------------------- $
