$ -------------------------------------------------------------------- $
$ WAVEWATCH III Grid preprocessor input file                           $
$ -------------------------------------------------------------------- $
$
  'Running g_glb075 simulation   '
$
$ Frequency increment factor and first frequency (Hz) ---------------- $
   1.1  0.04118  25  24  0.
$ Set model flags ---------------------------------------------------- $
   F T T T F T
$
$ Set time steps ----------------------------------------------------- $
    3600. 600. 600. 10.
$
END OF NAMELISTS
$
$ Define grid -------------------------------------------------------- $
     'RECT'  T  'SMPL'
            480 	 201 
             0.75 	  0.75 	  1.00 
            -180.0000 	 -70.0000 	  1.00
            -0.1  2.50  10  -1000.  2 1 '(....)' 'UNIT' 'dummy'
$
     96480*1
$
   10 3 1 '(....)' 'PART' 'dummy'
$
      0   0   F
      0   0   F
      0   0
      0.  0.  0.  0.   0
$
$ -------------------------------------------------------------------- $
$ End of input file                                                    $
$ -------------------------------------------------------------------- $
