$ -------------------------------------------------------------------- $
$ WAVEWATCH III Grid preprocessor input file                           $
$ -------------------------------------------------------------------- $
$
  'Running g_glb075 simulation   '
$
$ Frequency increment factor and first frequency (Hz) ---------------- $
   1.1  0.04118  25  24  0.
$ Set model flags ---------------------------------------------------- $
   F T T T F T
$
$ Set time steps ----------------------------------------------------- $
    3600. 600. 600. 10.
$
$ Start of namelist input section ------------------------------------ $
  &MISC FLAGTR = 4 /
  &SIN4 BETAMAX = 1.33 /
$
END OF NAMELISTS
$
$ Define grid -------------------------------------------------------- $
     'RECT'  T  'SMPL'
            480 	 201 
             0.75 	  0.75 	  1.00 
            -180.0000 	 -70.0000 	  1.00
            -0.10   2.50  20  0.001000  1  1 '(....)'  NAME  'g_glb075.bot' 
            21  0.010000  1  1  '(....)'  NAME  'g_glb075.obst'  
            22            1  1 '(....)'  NAME  'g_glb075.mask'
$
     0.    0.    0.    0.       0
$
$ -------------------------------------------------------------------- $
$ End of input file                                                    $
$ -------------------------------------------------------------------- $
