$WAVEWATCH III LOCAL OBSTRUCTIONS
10
$ ilon ilat of the cell. lon: 7.8, 30.4
5   2
$ sizes of the cell in km
    76.788       86.283       99.137      117.514      106.660       97.982       88.956       97.982      106.660      117.514       99.137       86.283       76.788       86.283       99.137      117.514      106.660       97.982       88.956       97.982      106.660      117.514       99.137       86.283
$ mean alpha: 0.584081216351
$ mean beta: 0.717684717767
$alpha by ik, ith
0.50  0.50  0.50  0.50  0.60  0.72  0.88  0.72  0.60  0.50  0.50  0.50  0.50  0.50  0.50  0.50  0.60  0.72  0.88  0.72  0.60  0.50  0.50  0.50
0.50  0.50  0.50  0.50  0.60  0.72  0.88  0.72  0.60  0.50  0.50  0.50  0.50  0.50  0.50  0.50  0.60  0.72  0.88  0.72  0.60  0.50  0.50  0.50
0.50  0.50  0.50  0.50  0.60  0.72  0.88  0.72  0.60  0.50  0.50  0.50  0.50  0.50  0.50  0.50  0.60  0.72  0.88  0.72  0.60  0.50  0.50  0.50
0.50  0.50  0.50  0.50  0.60  0.72  0.88  0.72  0.60  0.50  0.50  0.50  0.50  0.50  0.50  0.50  0.60  0.72  0.88  0.72  0.60  0.50  0.50  0.50
0.50  0.50  0.50  0.50  0.60  0.72  0.88  0.72  0.60  0.50  0.50  0.50  0.50  0.50  0.50  0.50  0.60  0.72  0.88  0.72  0.60  0.50  0.50  0.50
0.50  0.50  0.50  0.50  0.60  0.72  0.88  0.72  0.60  0.50  0.50  0.50  0.50  0.50  0.50  0.50  0.60  0.72  0.88  0.72  0.60  0.50  0.50  0.50
0.50  0.50  0.50  0.50  0.60  0.72  0.88  0.72  0.60  0.50  0.50  0.50  0.50  0.50  0.50  0.50  0.60  0.72  0.88  0.72  0.60  0.50  0.50  0.50
0.50  0.50  0.50  0.50  0.60  0.72  0.88  0.72  0.60  0.50  0.50  0.50  0.50  0.50  0.50  0.50  0.60  0.72  0.88  0.72  0.60  0.50  0.50  0.50
0.50  0.50  0.50  0.50  0.60  0.72  0.88  0.72  0.60  0.50  0.50  0.50  0.50  0.50  0.50  0.50  0.60  0.72  0.88  0.72  0.60  0.50  0.50  0.50
0.50  0.50  0.50  0.50  0.60  0.72  0.88  0.72  0.60  0.50  0.50  0.50  0.50  0.50  0.50  0.50  0.60  0.72  0.88  0.72  0.60  0.50  0.50  0.50
0.50  0.50  0.50  0.50  0.60  0.72  0.88  0.72  0.60  0.50  0.50  0.50  0.50  0.50  0.50  0.50  0.60  0.72  0.88  0.72  0.60  0.50  0.50  0.50
0.50  0.50  0.50  0.50  0.60  0.72  0.88  0.72  0.60  0.50  0.50  0.50  0.50  0.50  0.50  0.50  0.60  0.72  0.88  0.72  0.60  0.50  0.50  0.50
0.50  0.50  0.50  0.50  0.60  0.72  0.88  0.72  0.60  0.50  0.50  0.50  0.50  0.50  0.50  0.50  0.60  0.72  0.88  0.72  0.60  0.50  0.50  0.50
0.50  0.50  0.50  0.50  0.60  0.72  0.88  0.72  0.60  0.50  0.50  0.50  0.50  0.50  0.50  0.50  0.60  0.72  0.88  0.72  0.60  0.50  0.50  0.50
0.50  0.50  0.50  0.50  0.60  0.72  0.88  0.72  0.60  0.50  0.50  0.50  0.50  0.50  0.50  0.50  0.60  0.72  0.88  0.72  0.60  0.50  0.50  0.50
0.50  0.50  0.50  0.50  0.60  0.72  0.88  0.72  0.60  0.50  0.50  0.50  0.50  0.50  0.50  0.50  0.60  0.72  0.88  0.72  0.60  0.50  0.50  0.50
0.50  0.50  0.50  0.50  0.60  0.72  0.88  0.72  0.60  0.50  0.50  0.50  0.50  0.50  0.50  0.50  0.60  0.72  0.88  0.72  0.60  0.50  0.50  0.50
0.50  0.50  0.50  0.50  0.60  0.72  0.88  0.72  0.60  0.50  0.50  0.50  0.50  0.50  0.50  0.50  0.60  0.72  0.88  0.72  0.60  0.50  0.50  0.50
0.50  0.50  0.50  0.50  0.60  0.72  0.88  0.72  0.60  0.50  0.50  0.50  0.50  0.50  0.50  0.50  0.60  0.72  0.88  0.72  0.60  0.50  0.50  0.50
0.50  0.50  0.50  0.50  0.60  0.72  0.88  0.72  0.60  0.50  0.50  0.50  0.50  0.50  0.50  0.50  0.60  0.72  0.88  0.72  0.60  0.50  0.50  0.50
0.50  0.50  0.50  0.50  0.60  0.72  0.88  0.72  0.60  0.50  0.50  0.50  0.50  0.50  0.50  0.50  0.60  0.72  0.88  0.72  0.60  0.50  0.50  0.50
0.50  0.50  0.50  0.50  0.60  0.72  0.88  0.72  0.60  0.50  0.50  0.50  0.50  0.50  0.50  0.50  0.60  0.72  0.88  0.72  0.60  0.50  0.50  0.50
0.50  0.50  0.50  0.50  0.60  0.72  0.88  0.72  0.60  0.50  0.50  0.50  0.50  0.50  0.50  0.50  0.60  0.72  0.88  0.72  0.60  0.50  0.50  0.50
0.50  0.50  0.50  0.50  0.60  0.72  0.88  0.72  0.60  0.50  0.50  0.50  0.50  0.50  0.50  0.50  0.60  0.72  0.88  0.72  0.60  0.50  0.50  0.50
0.50  0.50  0.50  0.50  0.60  0.72  0.88  0.72  0.60  0.50  0.50  0.50  0.50  0.50  0.50  0.50  0.60  0.72  0.88  0.72  0.60  0.50  0.50  0.50
$beta by ik, ith
0.75  0.70  0.68  0.66  0.71  0.78  0.88  0.78  0.69  0.61  0.62  0.64  0.69  0.65  0.65  0.66  0.73  0.81  0.89  0.81  0.75  0.70  0.70  0.71
0.75  0.70  0.68  0.66  0.71  0.78  0.88  0.78  0.69  0.61  0.62  0.64  0.69  0.65  0.65  0.66  0.73  0.81  0.89  0.81  0.75  0.70  0.70  0.71
0.75  0.70  0.68  0.66  0.71  0.78  0.88  0.78  0.69  0.61  0.62  0.64  0.69  0.65  0.65  0.66  0.73  0.81  0.89  0.81  0.75  0.70  0.70  0.71
0.75  0.70  0.68  0.66  0.71  0.78  0.88  0.78  0.69  0.61  0.62  0.64  0.69  0.65  0.65  0.66  0.73  0.81  0.89  0.81  0.75  0.70  0.70  0.71
0.75  0.70  0.68  0.66  0.71  0.78  0.88  0.78  0.69  0.61  0.62  0.64  0.69  0.65  0.65  0.66  0.73  0.81  0.89  0.81  0.75  0.70  0.70  0.71
0.75  0.70  0.68  0.66  0.71  0.78  0.88  0.78  0.69  0.61  0.62  0.64  0.69  0.65  0.65  0.66  0.73  0.81  0.89  0.81  0.75  0.70  0.70  0.71
0.75  0.70  0.68  0.66  0.71  0.78  0.88  0.78  0.69  0.61  0.62  0.64  0.69  0.65  0.65  0.66  0.73  0.81  0.89  0.81  0.75  0.70  0.70  0.71
0.75  0.70  0.68  0.66  0.71  0.78  0.88  0.78  0.69  0.61  0.62  0.64  0.69  0.65  0.65  0.66  0.73  0.81  0.89  0.81  0.75  0.70  0.70  0.71
0.75  0.70  0.68  0.66  0.71  0.78  0.88  0.78  0.69  0.61  0.62  0.64  0.69  0.65  0.65  0.66  0.73  0.81  0.89  0.81  0.75  0.70  0.70  0.71
0.75  0.70  0.68  0.66  0.71  0.78  0.88  0.78  0.69  0.61  0.62  0.64  0.69  0.65  0.65  0.66  0.73  0.81  0.89  0.81  0.75  0.70  0.70  0.71
0.75  0.70  0.68  0.66  0.71  0.78  0.88  0.78  0.69  0.61  0.62  0.64  0.69  0.65  0.65  0.66  0.73  0.81  0.89  0.81  0.75  0.70  0.70  0.71
0.75  0.70  0.68  0.66  0.71  0.78  0.88  0.78  0.69  0.61  0.62  0.64  0.69  0.65  0.65  0.66  0.73  0.81  0.89  0.81  0.75  0.70  0.70  0.71
0.75  0.70  0.68  0.66  0.71  0.78  0.88  0.78  0.69  0.61  0.62  0.64  0.69  0.65  0.65  0.66  0.73  0.81  0.89  0.81  0.75  0.70  0.70  0.71
0.75  0.70  0.68  0.66  0.71  0.78  0.88  0.78  0.69  0.61  0.62  0.64  0.69  0.65  0.65  0.66  0.73  0.81  0.89  0.81  0.75  0.70  0.70  0.71
0.75  0.70  0.68  0.66  0.71  0.78  0.88  0.78  0.69  0.61  0.62  0.64  0.69  0.65  0.65  0.66  0.73  0.81  0.89  0.81  0.75  0.70  0.70  0.71
0.75  0.70  0.68  0.66  0.71  0.78  0.88  0.78  0.69  0.61  0.62  0.64  0.69  0.65  0.65  0.66  0.73  0.81  0.89  0.81  0.75  0.70  0.70  0.71
0.75  0.70  0.68  0.66  0.71  0.78  0.88  0.78  0.69  0.61  0.62  0.64  0.69  0.65  0.65  0.66  0.73  0.81  0.89  0.81  0.75  0.70  0.70  0.71
0.75  0.70  0.68  0.66  0.71  0.78  0.88  0.78  0.69  0.61  0.62  0.64  0.69  0.65  0.65  0.66  0.73  0.81  0.89  0.81  0.75  0.70  0.70  0.71
0.75  0.70  0.68  0.66  0.71  0.78  0.88  0.78  0.69  0.61  0.62  0.64  0.69  0.65  0.65  0.66  0.73  0.81  0.89  0.81  0.75  0.70  0.70  0.71
0.75  0.70  0.68  0.66  0.71  0.78  0.88  0.78  0.69  0.61  0.62  0.64  0.69  0.65  0.65  0.66  0.73  0.81  0.89  0.81  0.75  0.70  0.70  0.71
0.75  0.70  0.68  0.66  0.71  0.78  0.88  0.78  0.69  0.61  0.62  0.64  0.69  0.65  0.65  0.66  0.73  0.81  0.89  0.81  0.75  0.70  0.70  0.71
0.75  0.70  0.68  0.66  0.71  0.78  0.88  0.78  0.69  0.61  0.62  0.64  0.69  0.65  0.65  0.66  0.73  0.81  0.89  0.81  0.75  0.70  0.70  0.71
0.75  0.70  0.68  0.66  0.71  0.78  0.88  0.78  0.69  0.61  0.62  0.64  0.69  0.65  0.65  0.66  0.73  0.81  0.89  0.81  0.75  0.70  0.70  0.71
0.75  0.70  0.68  0.66  0.71  0.78  0.88  0.78  0.69  0.61  0.62  0.64  0.69  0.65  0.65  0.66  0.73  0.81  0.89  0.81  0.75  0.70  0.70  0.71
0.75  0.70  0.68  0.66  0.71  0.78  0.88  0.78  0.69  0.61  0.62  0.64  0.69  0.65  0.65  0.66  0.73  0.81  0.89  0.81  0.75  0.70  0.70  0.71
$ ilon ilat of the cell. lon: 7.8, 31.2
5   3
$ sizes of the cell in km
    76.154       85.633       98.571      117.101      106.485       97.941       88.956       97.941      106.485      117.101       98.571       85.633       76.154       85.633       98.571      117.101      106.485       97.941       88.956       97.941      106.485      117.101       98.571       85.633
$ mean alpha: 0.584081216351
$ mean beta: 0.717684717767
$alpha by ik, ith
0.50  0.50  0.50  0.50  0.60  0.72  0.88  0.72  0.60  0.50  0.50  0.50  0.50  0.50  0.50  0.50  0.60  0.72  0.88  0.72  0.60  0.50  0.50  0.50
0.50  0.50  0.50  0.50  0.60  0.72  0.88  0.72  0.60  0.50  0.50  0.50  0.50  0.50  0.50  0.50  0.60  0.72  0.88  0.72  0.60  0.50  0.50  0.50
0.50  0.50  0.50  0.50  0.60  0.72  0.88  0.72  0.60  0.50  0.50  0.50  0.50  0.50  0.50  0.50  0.60  0.72  0.88  0.72  0.60  0.50  0.50  0.50
0.50  0.50  0.50  0.50  0.60  0.72  0.88  0.72  0.60  0.50  0.50  0.50  0.50  0.50  0.50  0.50  0.60  0.72  0.88  0.72  0.60  0.50  0.50  0.50
0.50  0.50  0.50  0.50  0.60  0.72  0.88  0.72  0.60  0.50  0.50  0.50  0.50  0.50  0.50  0.50  0.60  0.72  0.88  0.72  0.60  0.50  0.50  0.50
0.50  0.50  0.50  0.50  0.60  0.72  0.88  0.72  0.60  0.50  0.50  0.50  0.50  0.50  0.50  0.50  0.60  0.72  0.88  0.72  0.60  0.50  0.50  0.50
0.50  0.50  0.50  0.50  0.60  0.72  0.88  0.72  0.60  0.50  0.50  0.50  0.50  0.50  0.50  0.50  0.60  0.72  0.88  0.72  0.60  0.50  0.50  0.50
0.50  0.50  0.50  0.50  0.60  0.72  0.88  0.72  0.60  0.50  0.50  0.50  0.50  0.50  0.50  0.50  0.60  0.72  0.88  0.72  0.60  0.50  0.50  0.50
0.50  0.50  0.50  0.50  0.60  0.72  0.88  0.72  0.60  0.50  0.50  0.50  0.50  0.50  0.50  0.50  0.60  0.72  0.88  0.72  0.60  0.50  0.50  0.50
0.50  0.50  0.50  0.50  0.60  0.72  0.88  0.72  0.60  0.50  0.50  0.50  0.50  0.50  0.50  0.50  0.60  0.72  0.88  0.72  0.60  0.50  0.50  0.50
0.50  0.50  0.50  0.50  0.60  0.72  0.88  0.72  0.60  0.50  0.50  0.50  0.50  0.50  0.50  0.50  0.60  0.72  0.88  0.72  0.60  0.50  0.50  0.50
0.50  0.50  0.50  0.50  0.60  0.72  0.88  0.72  0.60  0.50  0.50  0.50  0.50  0.50  0.50  0.50  0.60  0.72  0.88  0.72  0.60  0.50  0.50  0.50
0.50  0.50  0.50  0.50  0.60  0.72  0.88  0.72  0.60  0.50  0.50  0.50  0.50  0.50  0.50  0.50  0.60  0.72  0.88  0.72  0.60  0.50  0.50  0.50
0.50  0.50  0.50  0.50  0.60  0.72  0.88  0.72  0.60  0.50  0.50  0.50  0.50  0.50  0.50  0.50  0.60  0.72  0.88  0.72  0.60  0.50  0.50  0.50
0.50  0.50  0.50  0.50  0.60  0.72  0.88  0.72  0.60  0.50  0.50  0.50  0.50  0.50  0.50  0.50  0.60  0.72  0.88  0.72  0.60  0.50  0.50  0.50
0.50  0.50  0.50  0.50  0.60  0.72  0.88  0.72  0.60  0.50  0.50  0.50  0.50  0.50  0.50  0.50  0.60  0.72  0.88  0.72  0.60  0.50  0.50  0.50
0.50  0.50  0.50  0.50  0.60  0.72  0.88  0.72  0.60  0.50  0.50  0.50  0.50  0.50  0.50  0.50  0.60  0.72  0.88  0.72  0.60  0.50  0.50  0.50
0.50  0.50  0.50  0.50  0.60  0.72  0.88  0.72  0.60  0.50  0.50  0.50  0.50  0.50  0.50  0.50  0.60  0.72  0.88  0.72  0.60  0.50  0.50  0.50
0.50  0.50  0.50  0.50  0.60  0.72  0.88  0.72  0.60  0.50  0.50  0.50  0.50  0.50  0.50  0.50  0.60  0.72  0.88  0.72  0.60  0.50  0.50  0.50
0.50  0.50  0.50  0.50  0.60  0.72  0.88  0.72  0.60  0.50  0.50  0.50  0.50  0.50  0.50  0.50  0.60  0.72  0.88  0.72  0.60  0.50  0.50  0.50
0.50  0.50  0.50  0.50  0.60  0.72  0.88  0.72  0.60  0.50  0.50  0.50  0.50  0.50  0.50  0.50  0.60  0.72  0.88  0.72  0.60  0.50  0.50  0.50
0.50  0.50  0.50  0.50  0.60  0.72  0.88  0.72  0.60  0.50  0.50  0.50  0.50  0.50  0.50  0.50  0.60  0.72  0.88  0.72  0.60  0.50  0.50  0.50
0.50  0.50  0.50  0.50  0.60  0.72  0.88  0.72  0.60  0.50  0.50  0.50  0.50  0.50  0.50  0.50  0.60  0.72  0.88  0.72  0.60  0.50  0.50  0.50
0.50  0.50  0.50  0.50  0.60  0.72  0.88  0.72  0.60  0.50  0.50  0.50  0.50  0.50  0.50  0.50  0.60  0.72  0.88  0.72  0.60  0.50  0.50  0.50
0.50  0.50  0.50  0.50  0.60  0.72  0.88  0.72  0.60  0.50  0.50  0.50  0.50  0.50  0.50  0.50  0.60  0.72  0.88  0.72  0.60  0.50  0.50  0.50
$beta by ik, ith
0.75  0.70  0.68  0.66  0.71  0.78  0.88  0.78  0.69  0.61  0.62  0.64  0.69  0.65  0.65  0.66  0.73  0.81  0.89  0.81  0.75  0.70  0.70  0.71
0.75  0.70  0.68  0.66  0.71  0.78  0.88  0.78  0.69  0.61  0.62  0.64  0.69  0.65  0.65  0.66  0.73  0.81  0.89  0.81  0.75  0.70  0.70  0.71
0.75  0.70  0.68  0.66  0.71  0.78  0.88  0.78  0.69  0.61  0.62  0.64  0.69  0.65  0.65  0.66  0.73  0.81  0.89  0.81  0.75  0.70  0.70  0.71
0.75  0.70  0.68  0.66  0.71  0.78  0.88  0.78  0.69  0.61  0.62  0.64  0.69  0.65  0.65  0.66  0.73  0.81  0.89  0.81  0.75  0.70  0.70  0.71
0.75  0.70  0.68  0.66  0.71  0.78  0.88  0.78  0.69  0.61  0.62  0.64  0.69  0.65  0.65  0.66  0.73  0.81  0.89  0.81  0.75  0.70  0.70  0.71
0.75  0.70  0.68  0.66  0.71  0.78  0.88  0.78  0.69  0.61  0.62  0.64  0.69  0.65  0.65  0.66  0.73  0.81  0.89  0.81  0.75  0.70  0.70  0.71
0.75  0.70  0.68  0.66  0.71  0.78  0.88  0.78  0.69  0.61  0.62  0.64  0.69  0.65  0.65  0.66  0.73  0.81  0.89  0.81  0.75  0.70  0.70  0.71
0.75  0.70  0.68  0.66  0.71  0.78  0.88  0.78  0.69  0.61  0.62  0.64  0.69  0.65  0.65  0.66  0.73  0.81  0.89  0.81  0.75  0.70  0.70  0.71
0.75  0.70  0.68  0.66  0.71  0.78  0.88  0.78  0.69  0.61  0.62  0.64  0.69  0.65  0.65  0.66  0.73  0.81  0.89  0.81  0.75  0.70  0.70  0.71
0.75  0.70  0.68  0.66  0.71  0.78  0.88  0.78  0.69  0.61  0.62  0.64  0.69  0.65  0.65  0.66  0.73  0.81  0.89  0.81  0.75  0.70  0.70  0.71
0.75  0.70  0.68  0.66  0.71  0.78  0.88  0.78  0.69  0.61  0.62  0.64  0.69  0.65  0.65  0.66  0.73  0.81  0.89  0.81  0.75  0.70  0.70  0.71
0.75  0.70  0.68  0.66  0.71  0.78  0.88  0.78  0.69  0.61  0.62  0.64  0.69  0.65  0.65  0.66  0.73  0.81  0.89  0.81  0.75  0.70  0.70  0.71
0.75  0.70  0.68  0.66  0.71  0.78  0.88  0.78  0.69  0.61  0.62  0.64  0.69  0.65  0.65  0.66  0.73  0.81  0.89  0.81  0.75  0.70  0.70  0.71
0.75  0.70  0.68  0.66  0.71  0.78  0.88  0.78  0.69  0.61  0.62  0.64  0.69  0.65  0.65  0.66  0.73  0.81  0.89  0.81  0.75  0.70  0.70  0.71
0.75  0.70  0.68  0.66  0.71  0.78  0.88  0.78  0.69  0.61  0.62  0.64  0.69  0.65  0.65  0.66  0.73  0.81  0.89  0.81  0.75  0.70  0.70  0.71
0.75  0.70  0.68  0.66  0.71  0.78  0.88  0.78  0.69  0.61  0.62  0.64  0.69  0.65  0.65  0.66  0.73  0.81  0.89  0.81  0.75  0.70  0.70  0.71
0.75  0.70  0.68  0.66  0.71  0.78  0.88  0.78  0.69  0.61  0.62  0.64  0.69  0.65  0.65  0.66  0.73  0.81  0.89  0.81  0.75  0.70  0.70  0.71
0.75  0.70  0.68  0.66  0.71  0.78  0.88  0.78  0.69  0.61  0.62  0.64  0.69  0.65  0.65  0.66  0.73  0.81  0.89  0.81  0.75  0.70  0.70  0.71
0.75  0.70  0.68  0.66  0.71  0.78  0.88  0.78  0.69  0.61  0.62  0.64  0.69  0.65  0.65  0.66  0.73  0.81  0.89  0.81  0.75  0.70  0.70  0.71
0.75  0.70  0.68  0.66  0.71  0.78  0.88  0.78  0.69  0.61  0.62  0.64  0.69  0.65  0.65  0.66  0.73  0.81  0.89  0.81  0.75  0.70  0.70  0.71
0.75  0.70  0.68  0.66  0.71  0.78  0.88  0.78  0.69  0.61  0.62  0.64  0.69  0.65  0.65  0.66  0.73  0.81  0.89  0.81  0.75  0.70  0.70  0.71
0.75  0.70  0.68  0.66  0.71  0.78  0.88  0.78  0.69  0.61  0.62  0.64  0.69  0.65  0.65  0.66  0.73  0.81  0.89  0.81  0.75  0.70  0.70  0.71
0.75  0.70  0.68  0.66  0.71  0.78  0.88  0.78  0.69  0.61  0.62  0.64  0.69  0.65  0.65  0.66  0.73  0.81  0.89  0.81  0.75  0.70  0.70  0.71
0.75  0.70  0.68  0.66  0.71  0.78  0.88  0.78  0.69  0.61  0.62  0.64  0.69  0.65  0.65  0.66  0.73  0.81  0.89  0.81  0.75  0.70  0.70  0.71
0.75  0.70  0.68  0.66  0.71  0.78  0.88  0.78  0.69  0.61  0.62  0.64  0.69  0.65  0.65  0.66  0.73  0.81  0.89  0.81  0.75  0.70  0.70  0.71
$ ilon ilat of the cell. lon: 7.8, 32.0
5   4
$ sizes of the cell in km
    75.505       84.968       97.995      116.680      106.308       97.899       88.956       97.899      106.308      116.680       97.995       84.968       75.505       84.968       97.995      116.680      106.308       97.899       88.956       97.899      106.308      116.680       97.995       84.968
$ mean alpha: 0.584081216351
$ mean beta: 0.717684717767
$alpha by ik, ith
0.50  0.50  0.50  0.50  0.60  0.72  0.88  0.72  0.60  0.50  0.50  0.50  0.50  0.50  0.50  0.50  0.60  0.72  0.88  0.72  0.60  0.50  0.50  0.50
0.50  0.50  0.50  0.50  0.60  0.72  0.88  0.72  0.60  0.50  0.50  0.50  0.50  0.50  0.50  0.50  0.60  0.72  0.88  0.72  0.60  0.50  0.50  0.50
0.50  0.50  0.50  0.50  0.60  0.72  0.88  0.72  0.60  0.50  0.50  0.50  0.50  0.50  0.50  0.50  0.60  0.72  0.88  0.72  0.60  0.50  0.50  0.50
0.50  0.50  0.50  0.50  0.60  0.72  0.88  0.72  0.60  0.50  0.50  0.50  0.50  0.50  0.50  0.50  0.60  0.72  0.88  0.72  0.60  0.50  0.50  0.50
0.50  0.50  0.50  0.50  0.60  0.72  0.88  0.72  0.60  0.50  0.50  0.50  0.50  0.50  0.50  0.50  0.60  0.72  0.88  0.72  0.60  0.50  0.50  0.50
0.50  0.50  0.50  0.50  0.60  0.72  0.88  0.72  0.60  0.50  0.50  0.50  0.50  0.50  0.50  0.50  0.60  0.72  0.88  0.72  0.60  0.50  0.50  0.50
0.50  0.50  0.50  0.50  0.60  0.72  0.88  0.72  0.60  0.50  0.50  0.50  0.50  0.50  0.50  0.50  0.60  0.72  0.88  0.72  0.60  0.50  0.50  0.50
0.50  0.50  0.50  0.50  0.60  0.72  0.88  0.72  0.60  0.50  0.50  0.50  0.50  0.50  0.50  0.50  0.60  0.72  0.88  0.72  0.60  0.50  0.50  0.50
0.50  0.50  0.50  0.50  0.60  0.72  0.88  0.72  0.60  0.50  0.50  0.50  0.50  0.50  0.50  0.50  0.60  0.72  0.88  0.72  0.60  0.50  0.50  0.50
0.50  0.50  0.50  0.50  0.60  0.72  0.88  0.72  0.60  0.50  0.50  0.50  0.50  0.50  0.50  0.50  0.60  0.72  0.88  0.72  0.60  0.50  0.50  0.50
0.50  0.50  0.50  0.50  0.60  0.72  0.88  0.72  0.60  0.50  0.50  0.50  0.50  0.50  0.50  0.50  0.60  0.72  0.88  0.72  0.60  0.50  0.50  0.50
0.50  0.50  0.50  0.50  0.60  0.72  0.88  0.72  0.60  0.50  0.50  0.50  0.50  0.50  0.50  0.50  0.60  0.72  0.88  0.72  0.60  0.50  0.50  0.50
0.50  0.50  0.50  0.50  0.60  0.72  0.88  0.72  0.60  0.50  0.50  0.50  0.50  0.50  0.50  0.50  0.60  0.72  0.88  0.72  0.60  0.50  0.50  0.50
0.50  0.50  0.50  0.50  0.60  0.72  0.88  0.72  0.60  0.50  0.50  0.50  0.50  0.50  0.50  0.50  0.60  0.72  0.88  0.72  0.60  0.50  0.50  0.50
0.50  0.50  0.50  0.50  0.60  0.72  0.88  0.72  0.60  0.50  0.50  0.50  0.50  0.50  0.50  0.50  0.60  0.72  0.88  0.72  0.60  0.50  0.50  0.50
0.50  0.50  0.50  0.50  0.60  0.72  0.88  0.72  0.60  0.50  0.50  0.50  0.50  0.50  0.50  0.50  0.60  0.72  0.88  0.72  0.60  0.50  0.50  0.50
0.50  0.50  0.50  0.50  0.60  0.72  0.88  0.72  0.60  0.50  0.50  0.50  0.50  0.50  0.50  0.50  0.60  0.72  0.88  0.72  0.60  0.50  0.50  0.50
0.50  0.50  0.50  0.50  0.60  0.72  0.88  0.72  0.60  0.50  0.50  0.50  0.50  0.50  0.50  0.50  0.60  0.72  0.88  0.72  0.60  0.50  0.50  0.50
0.50  0.50  0.50  0.50  0.60  0.72  0.88  0.72  0.60  0.50  0.50  0.50  0.50  0.50  0.50  0.50  0.60  0.72  0.88  0.72  0.60  0.50  0.50  0.50
0.50  0.50  0.50  0.50  0.60  0.72  0.88  0.72  0.60  0.50  0.50  0.50  0.50  0.50  0.50  0.50  0.60  0.72  0.88  0.72  0.60  0.50  0.50  0.50
0.50  0.50  0.50  0.50  0.60  0.72  0.88  0.72  0.60  0.50  0.50  0.50  0.50  0.50  0.50  0.50  0.60  0.72  0.88  0.72  0.60  0.50  0.50  0.50
0.50  0.50  0.50  0.50  0.60  0.72  0.88  0.72  0.60  0.50  0.50  0.50  0.50  0.50  0.50  0.50  0.60  0.72  0.88  0.72  0.60  0.50  0.50  0.50
0.50  0.50  0.50  0.50  0.60  0.72  0.88  0.72  0.60  0.50  0.50  0.50  0.50  0.50  0.50  0.50  0.60  0.72  0.88  0.72  0.60  0.50  0.50  0.50
0.50  0.50  0.50  0.50  0.60  0.72  0.88  0.72  0.60  0.50  0.50  0.50  0.50  0.50  0.50  0.50  0.60  0.72  0.88  0.72  0.60  0.50  0.50  0.50
0.50  0.50  0.50  0.50  0.60  0.72  0.88  0.72  0.60  0.50  0.50  0.50  0.50  0.50  0.50  0.50  0.60  0.72  0.88  0.72  0.60  0.50  0.50  0.50
$beta by ik, ith
0.75  0.70  0.68  0.66  0.71  0.78  0.88  0.78  0.69  0.61  0.62  0.64  0.69  0.65  0.65  0.66  0.73  0.81  0.89  0.81  0.75  0.70  0.70  0.71
0.75  0.70  0.68  0.66  0.71  0.78  0.88  0.78  0.69  0.61  0.62  0.64  0.69  0.65  0.65  0.66  0.73  0.81  0.89  0.81  0.75  0.70  0.70  0.71
0.75  0.70  0.68  0.66  0.71  0.78  0.88  0.78  0.69  0.61  0.62  0.64  0.69  0.65  0.65  0.66  0.73  0.81  0.89  0.81  0.75  0.70  0.70  0.71
0.75  0.70  0.68  0.66  0.71  0.78  0.88  0.78  0.69  0.61  0.62  0.64  0.69  0.65  0.65  0.66  0.73  0.81  0.89  0.81  0.75  0.70  0.70  0.71
0.75  0.70  0.68  0.66  0.71  0.78  0.88  0.78  0.69  0.61  0.62  0.64  0.69  0.65  0.65  0.66  0.73  0.81  0.89  0.81  0.75  0.70  0.70  0.71
0.75  0.70  0.68  0.66  0.71  0.78  0.88  0.78  0.69  0.61  0.62  0.64  0.69  0.65  0.65  0.66  0.73  0.81  0.89  0.81  0.75  0.70  0.70  0.71
0.75  0.70  0.68  0.66  0.71  0.78  0.88  0.78  0.69  0.61  0.62  0.64  0.69  0.65  0.65  0.66  0.73  0.81  0.89  0.81  0.75  0.70  0.70  0.71
0.75  0.70  0.68  0.66  0.71  0.78  0.88  0.78  0.69  0.61  0.62  0.64  0.69  0.65  0.65  0.66  0.73  0.81  0.89  0.81  0.75  0.70  0.70  0.71
0.75  0.70  0.68  0.66  0.71  0.78  0.88  0.78  0.69  0.61  0.62  0.64  0.69  0.65  0.65  0.66  0.73  0.81  0.89  0.81  0.75  0.70  0.70  0.71
0.75  0.70  0.68  0.66  0.71  0.78  0.88  0.78  0.69  0.61  0.62  0.64  0.69  0.65  0.65  0.66  0.73  0.81  0.89  0.81  0.75  0.70  0.70  0.71
0.75  0.70  0.68  0.66  0.71  0.78  0.88  0.78  0.69  0.61  0.62  0.64  0.69  0.65  0.65  0.66  0.73  0.81  0.89  0.81  0.75  0.70  0.70  0.71
0.75  0.70  0.68  0.66  0.71  0.78  0.88  0.78  0.69  0.61  0.62  0.64  0.69  0.65  0.65  0.66  0.73  0.81  0.89  0.81  0.75  0.70  0.70  0.71
0.75  0.70  0.68  0.66  0.71  0.78  0.88  0.78  0.69  0.61  0.62  0.64  0.69  0.65  0.65  0.66  0.73  0.81  0.89  0.81  0.75  0.70  0.70  0.71
0.75  0.70  0.68  0.66  0.71  0.78  0.88  0.78  0.69  0.61  0.62  0.64  0.69  0.65  0.65  0.66  0.73  0.81  0.89  0.81  0.75  0.70  0.70  0.71
0.75  0.70  0.68  0.66  0.71  0.78  0.88  0.78  0.69  0.61  0.62  0.64  0.69  0.65  0.65  0.66  0.73  0.81  0.89  0.81  0.75  0.70  0.70  0.71
0.75  0.70  0.68  0.66  0.71  0.78  0.88  0.78  0.69  0.61  0.62  0.64  0.69  0.65  0.65  0.66  0.73  0.81  0.89  0.81  0.75  0.70  0.70  0.71
0.75  0.70  0.68  0.66  0.71  0.78  0.88  0.78  0.69  0.61  0.62  0.64  0.69  0.65  0.65  0.66  0.73  0.81  0.89  0.81  0.75  0.70  0.70  0.71
0.75  0.70  0.68  0.66  0.71  0.78  0.88  0.78  0.69  0.61  0.62  0.64  0.69  0.65  0.65  0.66  0.73  0.81  0.89  0.81  0.75  0.70  0.70  0.71
0.75  0.70  0.68  0.66  0.71  0.78  0.88  0.78  0.69  0.61  0.62  0.64  0.69  0.65  0.65  0.66  0.73  0.81  0.89  0.81  0.75  0.70  0.70  0.71
0.75  0.70  0.68  0.66  0.71  0.78  0.88  0.78  0.69  0.61  0.62  0.64  0.69  0.65  0.65  0.66  0.73  0.81  0.89  0.81  0.75  0.70  0.70  0.71
0.75  0.70  0.68  0.66  0.71  0.78  0.88  0.78  0.69  0.61  0.62  0.64  0.69  0.65  0.65  0.66  0.73  0.81  0.89  0.81  0.75  0.70  0.70  0.71
0.75  0.70  0.68  0.66  0.71  0.78  0.88  0.78  0.69  0.61  0.62  0.64  0.69  0.65  0.65  0.66  0.73  0.81  0.89  0.81  0.75  0.70  0.70  0.71
0.75  0.70  0.68  0.66  0.71  0.78  0.88  0.78  0.69  0.61  0.62  0.64  0.69  0.65  0.65  0.66  0.73  0.81  0.89  0.81  0.75  0.70  0.70  0.71
0.75  0.70  0.68  0.66  0.71  0.78  0.88  0.78  0.69  0.61  0.62  0.64  0.69  0.65  0.65  0.66  0.73  0.81  0.89  0.81  0.75  0.70  0.70  0.71
0.75  0.70  0.68  0.66  0.71  0.78  0.88  0.78  0.69  0.61  0.62  0.64  0.69  0.65  0.65  0.66  0.73  0.81  0.89  0.81  0.75  0.70  0.70  0.71
$ ilon ilat of the cell. lon: 7.8, 32.8
5   5
$ sizes of the cell in km
    74.841       84.289       97.406      116.251      106.127       97.857       88.956       97.857      106.127      116.251       97.406       84.289       74.841       84.289       97.406      116.251      106.127       97.857       88.956       97.857      106.127      116.251       97.406       84.289
$ mean alpha: 0.584081216351
$ mean beta: 0.717684717767
$alpha by ik, ith
0.50  0.50  0.50  0.50  0.60  0.72  0.88  0.72  0.60  0.50  0.50  0.50  0.50  0.50  0.50  0.50  0.60  0.72  0.88  0.72  0.60  0.50  0.50  0.50
0.50  0.50  0.50  0.50  0.60  0.72  0.88  0.72  0.60  0.50  0.50  0.50  0.50  0.50  0.50  0.50  0.60  0.72  0.88  0.72  0.60  0.50  0.50  0.50
0.50  0.50  0.50  0.50  0.60  0.72  0.88  0.72  0.60  0.50  0.50  0.50  0.50  0.50  0.50  0.50  0.60  0.72  0.88  0.72  0.60  0.50  0.50  0.50
0.50  0.50  0.50  0.50  0.60  0.72  0.88  0.72  0.60  0.50  0.50  0.50  0.50  0.50  0.50  0.50  0.60  0.72  0.88  0.72  0.60  0.50  0.50  0.50
0.50  0.50  0.50  0.50  0.60  0.72  0.88  0.72  0.60  0.50  0.50  0.50  0.50  0.50  0.50  0.50  0.60  0.72  0.88  0.72  0.60  0.50  0.50  0.50
0.50  0.50  0.50  0.50  0.60  0.72  0.88  0.72  0.60  0.50  0.50  0.50  0.50  0.50  0.50  0.50  0.60  0.72  0.88  0.72  0.60  0.50  0.50  0.50
0.50  0.50  0.50  0.50  0.60  0.72  0.88  0.72  0.60  0.50  0.50  0.50  0.50  0.50  0.50  0.50  0.60  0.72  0.88  0.72  0.60  0.50  0.50  0.50
0.50  0.50  0.50  0.50  0.60  0.72  0.88  0.72  0.60  0.50  0.50  0.50  0.50  0.50  0.50  0.50  0.60  0.72  0.88  0.72  0.60  0.50  0.50  0.50
0.50  0.50  0.50  0.50  0.60  0.72  0.88  0.72  0.60  0.50  0.50  0.50  0.50  0.50  0.50  0.50  0.60  0.72  0.88  0.72  0.60  0.50  0.50  0.50
0.50  0.50  0.50  0.50  0.60  0.72  0.88  0.72  0.60  0.50  0.50  0.50  0.50  0.50  0.50  0.50  0.60  0.72  0.88  0.72  0.60  0.50  0.50  0.50
0.50  0.50  0.50  0.50  0.60  0.72  0.88  0.72  0.60  0.50  0.50  0.50  0.50  0.50  0.50  0.50  0.60  0.72  0.88  0.72  0.60  0.50  0.50  0.50
0.50  0.50  0.50  0.50  0.60  0.72  0.88  0.72  0.60  0.50  0.50  0.50  0.50  0.50  0.50  0.50  0.60  0.72  0.88  0.72  0.60  0.50  0.50  0.50
0.50  0.50  0.50  0.50  0.60  0.72  0.88  0.72  0.60  0.50  0.50  0.50  0.50  0.50  0.50  0.50  0.60  0.72  0.88  0.72  0.60  0.50  0.50  0.50
0.50  0.50  0.50  0.50  0.60  0.72  0.88  0.72  0.60  0.50  0.50  0.50  0.50  0.50  0.50  0.50  0.60  0.72  0.88  0.72  0.60  0.50  0.50  0.50
0.50  0.50  0.50  0.50  0.60  0.72  0.88  0.72  0.60  0.50  0.50  0.50  0.50  0.50  0.50  0.50  0.60  0.72  0.88  0.72  0.60  0.50  0.50  0.50
0.50  0.50  0.50  0.50  0.60  0.72  0.88  0.72  0.60  0.50  0.50  0.50  0.50  0.50  0.50  0.50  0.60  0.72  0.88  0.72  0.60  0.50  0.50  0.50
0.50  0.50  0.50  0.50  0.60  0.72  0.88  0.72  0.60  0.50  0.50  0.50  0.50  0.50  0.50  0.50  0.60  0.72  0.88  0.72  0.60  0.50  0.50  0.50
0.50  0.50  0.50  0.50  0.60  0.72  0.88  0.72  0.60  0.50  0.50  0.50  0.50  0.50  0.50  0.50  0.60  0.72  0.88  0.72  0.60  0.50  0.50  0.50
0.50  0.50  0.50  0.50  0.60  0.72  0.88  0.72  0.60  0.50  0.50  0.50  0.50  0.50  0.50  0.50  0.60  0.72  0.88  0.72  0.60  0.50  0.50  0.50
0.50  0.50  0.50  0.50  0.60  0.72  0.88  0.72  0.60  0.50  0.50  0.50  0.50  0.50  0.50  0.50  0.60  0.72  0.88  0.72  0.60  0.50  0.50  0.50
0.50  0.50  0.50  0.50  0.60  0.72  0.88  0.72  0.60  0.50  0.50  0.50  0.50  0.50  0.50  0.50  0.60  0.72  0.88  0.72  0.60  0.50  0.50  0.50
0.50  0.50  0.50  0.50  0.60  0.72  0.88  0.72  0.60  0.50  0.50  0.50  0.50  0.50  0.50  0.50  0.60  0.72  0.88  0.72  0.60  0.50  0.50  0.50
0.50  0.50  0.50  0.50  0.60  0.72  0.88  0.72  0.60  0.50  0.50  0.50  0.50  0.50  0.50  0.50  0.60  0.72  0.88  0.72  0.60  0.50  0.50  0.50
0.50  0.50  0.50  0.50  0.60  0.72  0.88  0.72  0.60  0.50  0.50  0.50  0.50  0.50  0.50  0.50  0.60  0.72  0.88  0.72  0.60  0.50  0.50  0.50
0.50  0.50  0.50  0.50  0.60  0.72  0.88  0.72  0.60  0.50  0.50  0.50  0.50  0.50  0.50  0.50  0.60  0.72  0.88  0.72  0.60  0.50  0.50  0.50
$beta by ik, ith
0.75  0.70  0.68  0.66  0.71  0.78  0.88  0.78  0.69  0.61  0.62  0.64  0.69  0.65  0.65  0.66  0.73  0.81  0.89  0.81  0.75  0.70  0.70  0.71
0.75  0.70  0.68  0.66  0.71  0.78  0.88  0.78  0.69  0.61  0.62  0.64  0.69  0.65  0.65  0.66  0.73  0.81  0.89  0.81  0.75  0.70  0.70  0.71
0.75  0.70  0.68  0.66  0.71  0.78  0.88  0.78  0.69  0.61  0.62  0.64  0.69  0.65  0.65  0.66  0.73  0.81  0.89  0.81  0.75  0.70  0.70  0.71
0.75  0.70  0.68  0.66  0.71  0.78  0.88  0.78  0.69  0.61  0.62  0.64  0.69  0.65  0.65  0.66  0.73  0.81  0.89  0.81  0.75  0.70  0.70  0.71
0.75  0.70  0.68  0.66  0.71  0.78  0.88  0.78  0.69  0.61  0.62  0.64  0.69  0.65  0.65  0.66  0.73  0.81  0.89  0.81  0.75  0.70  0.70  0.71
0.75  0.70  0.68  0.66  0.71  0.78  0.88  0.78  0.69  0.61  0.62  0.64  0.69  0.65  0.65  0.66  0.73  0.81  0.89  0.81  0.75  0.70  0.70  0.71
0.75  0.70  0.68  0.66  0.71  0.78  0.88  0.78  0.69  0.61  0.62  0.64  0.69  0.65  0.65  0.66  0.73  0.81  0.89  0.81  0.75  0.70  0.70  0.71
0.75  0.70  0.68  0.66  0.71  0.78  0.88  0.78  0.69  0.61  0.62  0.64  0.69  0.65  0.65  0.66  0.73  0.81  0.89  0.81  0.75  0.70  0.70  0.71
0.75  0.70  0.68  0.66  0.71  0.78  0.88  0.78  0.69  0.61  0.62  0.64  0.69  0.65  0.65  0.66  0.73  0.81  0.89  0.81  0.75  0.70  0.70  0.71
0.75  0.70  0.68  0.66  0.71  0.78  0.88  0.78  0.69  0.61  0.62  0.64  0.69  0.65  0.65  0.66  0.73  0.81  0.89  0.81  0.75  0.70  0.70  0.71
0.75  0.70  0.68  0.66  0.71  0.78  0.88  0.78  0.69  0.61  0.62  0.64  0.69  0.65  0.65  0.66  0.73  0.81  0.89  0.81  0.75  0.70  0.70  0.71
0.75  0.70  0.68  0.66  0.71  0.78  0.88  0.78  0.69  0.61  0.62  0.64  0.69  0.65  0.65  0.66  0.73  0.81  0.89  0.81  0.75  0.70  0.70  0.71
0.75  0.70  0.68  0.66  0.71  0.78  0.88  0.78  0.69  0.61  0.62  0.64  0.69  0.65  0.65  0.66  0.73  0.81  0.89  0.81  0.75  0.70  0.70  0.71
0.75  0.70  0.68  0.66  0.71  0.78  0.88  0.78  0.69  0.61  0.62  0.64  0.69  0.65  0.65  0.66  0.73  0.81  0.89  0.81  0.75  0.70  0.70  0.71
0.75  0.70  0.68  0.66  0.71  0.78  0.88  0.78  0.69  0.61  0.62  0.64  0.69  0.65  0.65  0.66  0.73  0.81  0.89  0.81  0.75  0.70  0.70  0.71
0.75  0.70  0.68  0.66  0.71  0.78  0.88  0.78  0.69  0.61  0.62  0.64  0.69  0.65  0.65  0.66  0.73  0.81  0.89  0.81  0.75  0.70  0.70  0.71
0.75  0.70  0.68  0.66  0.71  0.78  0.88  0.78  0.69  0.61  0.62  0.64  0.69  0.65  0.65  0.66  0.73  0.81  0.89  0.81  0.75  0.70  0.70  0.71
0.75  0.70  0.68  0.66  0.71  0.78  0.88  0.78  0.69  0.61  0.62  0.64  0.69  0.65  0.65  0.66  0.73  0.81  0.89  0.81  0.75  0.70  0.70  0.71
0.75  0.70  0.68  0.66  0.71  0.78  0.88  0.78  0.69  0.61  0.62  0.64  0.69  0.65  0.65  0.66  0.73  0.81  0.89  0.81  0.75  0.70  0.70  0.71
0.75  0.70  0.68  0.66  0.71  0.78  0.88  0.78  0.69  0.61  0.62  0.64  0.69  0.65  0.65  0.66  0.73  0.81  0.89  0.81  0.75  0.70  0.70  0.71
0.75  0.70  0.68  0.66  0.71  0.78  0.88  0.78  0.69  0.61  0.62  0.64  0.69  0.65  0.65  0.66  0.73  0.81  0.89  0.81  0.75  0.70  0.70  0.71
0.75  0.70  0.68  0.66  0.71  0.78  0.88  0.78  0.69  0.61  0.62  0.64  0.69  0.65  0.65  0.66  0.73  0.81  0.89  0.81  0.75  0.70  0.70  0.71
0.75  0.70  0.68  0.66  0.71  0.78  0.88  0.78  0.69  0.61  0.62  0.64  0.69  0.65  0.65  0.66  0.73  0.81  0.89  0.81  0.75  0.70  0.70  0.71
0.75  0.70  0.68  0.66  0.71  0.78  0.88  0.78  0.69  0.61  0.62  0.64  0.69  0.65  0.65  0.66  0.73  0.81  0.89  0.81  0.75  0.70  0.70  0.71
0.75  0.70  0.68  0.66  0.71  0.78  0.88  0.78  0.69  0.61  0.62  0.64  0.69  0.65  0.65  0.66  0.73  0.81  0.89  0.81  0.75  0.70  0.70  0.71
$ ilon ilat of the cell. lon: 7.8, 33.6
5   6
$ sizes of the cell in km
    74.162       83.595       96.806      115.815      105.944       97.814       88.956       97.814      105.944      115.815       96.806       83.595       74.162       83.595       96.806      115.815      105.944       97.814       88.956       97.814      105.944      115.815       96.806       83.595
$ mean alpha: 0.584081216351
$ mean beta: 0.717684717767
$alpha by ik, ith
0.50  0.50  0.50  0.50  0.60  0.72  0.88  0.72  0.60  0.50  0.50  0.50  0.50  0.50  0.50  0.50  0.60  0.72  0.88  0.72  0.60  0.50  0.50  0.50
0.50  0.50  0.50  0.50  0.60  0.72  0.88  0.72  0.60  0.50  0.50  0.50  0.50  0.50  0.50  0.50  0.60  0.72  0.88  0.72  0.60  0.50  0.50  0.50
0.50  0.50  0.50  0.50  0.60  0.72  0.88  0.72  0.60  0.50  0.50  0.50  0.50  0.50  0.50  0.50  0.60  0.72  0.88  0.72  0.60  0.50  0.50  0.50
0.50  0.50  0.50  0.50  0.60  0.72  0.88  0.72  0.60  0.50  0.50  0.50  0.50  0.50  0.50  0.50  0.60  0.72  0.88  0.72  0.60  0.50  0.50  0.50
0.50  0.50  0.50  0.50  0.60  0.72  0.88  0.72  0.60  0.50  0.50  0.50  0.50  0.50  0.50  0.50  0.60  0.72  0.88  0.72  0.60  0.50  0.50  0.50
0.50  0.50  0.50  0.50  0.60  0.72  0.88  0.72  0.60  0.50  0.50  0.50  0.50  0.50  0.50  0.50  0.60  0.72  0.88  0.72  0.60  0.50  0.50  0.50
0.50  0.50  0.50  0.50  0.60  0.72  0.88  0.72  0.60  0.50  0.50  0.50  0.50  0.50  0.50  0.50  0.60  0.72  0.88  0.72  0.60  0.50  0.50  0.50
0.50  0.50  0.50  0.50  0.60  0.72  0.88  0.72  0.60  0.50  0.50  0.50  0.50  0.50  0.50  0.50  0.60  0.72  0.88  0.72  0.60  0.50  0.50  0.50
0.50  0.50  0.50  0.50  0.60  0.72  0.88  0.72  0.60  0.50  0.50  0.50  0.50  0.50  0.50  0.50  0.60  0.72  0.88  0.72  0.60  0.50  0.50  0.50
0.50  0.50  0.50  0.50  0.60  0.72  0.88  0.72  0.60  0.50  0.50  0.50  0.50  0.50  0.50  0.50  0.60  0.72  0.88  0.72  0.60  0.50  0.50  0.50
0.50  0.50  0.50  0.50  0.60  0.72  0.88  0.72  0.60  0.50  0.50  0.50  0.50  0.50  0.50  0.50  0.60  0.72  0.88  0.72  0.60  0.50  0.50  0.50
0.50  0.50  0.50  0.50  0.60  0.72  0.88  0.72  0.60  0.50  0.50  0.50  0.50  0.50  0.50  0.50  0.60  0.72  0.88  0.72  0.60  0.50  0.50  0.50
0.50  0.50  0.50  0.50  0.60  0.72  0.88  0.72  0.60  0.50  0.50  0.50  0.50  0.50  0.50  0.50  0.60  0.72  0.88  0.72  0.60  0.50  0.50  0.50
0.50  0.50  0.50  0.50  0.60  0.72  0.88  0.72  0.60  0.50  0.50  0.50  0.50  0.50  0.50  0.50  0.60  0.72  0.88  0.72  0.60  0.50  0.50  0.50
0.50  0.50  0.50  0.50  0.60  0.72  0.88  0.72  0.60  0.50  0.50  0.50  0.50  0.50  0.50  0.50  0.60  0.72  0.88  0.72  0.60  0.50  0.50  0.50
0.50  0.50  0.50  0.50  0.60  0.72  0.88  0.72  0.60  0.50  0.50  0.50  0.50  0.50  0.50  0.50  0.60  0.72  0.88  0.72  0.60  0.50  0.50  0.50
0.50  0.50  0.50  0.50  0.60  0.72  0.88  0.72  0.60  0.50  0.50  0.50  0.50  0.50  0.50  0.50  0.60  0.72  0.88  0.72  0.60  0.50  0.50  0.50
0.50  0.50  0.50  0.50  0.60  0.72  0.88  0.72  0.60  0.50  0.50  0.50  0.50  0.50  0.50  0.50  0.60  0.72  0.88  0.72  0.60  0.50  0.50  0.50
0.50  0.50  0.50  0.50  0.60  0.72  0.88  0.72  0.60  0.50  0.50  0.50  0.50  0.50  0.50  0.50  0.60  0.72  0.88  0.72  0.60  0.50  0.50  0.50
0.50  0.50  0.50  0.50  0.60  0.72  0.88  0.72  0.60  0.50  0.50  0.50  0.50  0.50  0.50  0.50  0.60  0.72  0.88  0.72  0.60  0.50  0.50  0.50
0.50  0.50  0.50  0.50  0.60  0.72  0.88  0.72  0.60  0.50  0.50  0.50  0.50  0.50  0.50  0.50  0.60  0.72  0.88  0.72  0.60  0.50  0.50  0.50
0.50  0.50  0.50  0.50  0.60  0.72  0.88  0.72  0.60  0.50  0.50  0.50  0.50  0.50  0.50  0.50  0.60  0.72  0.88  0.72  0.60  0.50  0.50  0.50
0.50  0.50  0.50  0.50  0.60  0.72  0.88  0.72  0.60  0.50  0.50  0.50  0.50  0.50  0.50  0.50  0.60  0.72  0.88  0.72  0.60  0.50  0.50  0.50
0.50  0.50  0.50  0.50  0.60  0.72  0.88  0.72  0.60  0.50  0.50  0.50  0.50  0.50  0.50  0.50  0.60  0.72  0.88  0.72  0.60  0.50  0.50  0.50
0.50  0.50  0.50  0.50  0.60  0.72  0.88  0.72  0.60  0.50  0.50  0.50  0.50  0.50  0.50  0.50  0.60  0.72  0.88  0.72  0.60  0.50  0.50  0.50
$beta by ik, ith
0.75  0.70  0.68  0.66  0.71  0.78  0.88  0.78  0.69  0.61  0.62  0.64  0.69  0.65  0.65  0.66  0.73  0.81  0.89  0.81  0.75  0.70  0.70  0.71
0.75  0.70  0.68  0.66  0.71  0.78  0.88  0.78  0.69  0.61  0.62  0.64  0.69  0.65  0.65  0.66  0.73  0.81  0.89  0.81  0.75  0.70  0.70  0.71
0.75  0.70  0.68  0.66  0.71  0.78  0.88  0.78  0.69  0.61  0.62  0.64  0.69  0.65  0.65  0.66  0.73  0.81  0.89  0.81  0.75  0.70  0.70  0.71
0.75  0.70  0.68  0.66  0.71  0.78  0.88  0.78  0.69  0.61  0.62  0.64  0.69  0.65  0.65  0.66  0.73  0.81  0.89  0.81  0.75  0.70  0.70  0.71
0.75  0.70  0.68  0.66  0.71  0.78  0.88  0.78  0.69  0.61  0.62  0.64  0.69  0.65  0.65  0.66  0.73  0.81  0.89  0.81  0.75  0.70  0.70  0.71
0.75  0.70  0.68  0.66  0.71  0.78  0.88  0.78  0.69  0.61  0.62  0.64  0.69  0.65  0.65  0.66  0.73  0.81  0.89  0.81  0.75  0.70  0.70  0.71
0.75  0.70  0.68  0.66  0.71  0.78  0.88  0.78  0.69  0.61  0.62  0.64  0.69  0.65  0.65  0.66  0.73  0.81  0.89  0.81  0.75  0.70  0.70  0.71
0.75  0.70  0.68  0.66  0.71  0.78  0.88  0.78  0.69  0.61  0.62  0.64  0.69  0.65  0.65  0.66  0.73  0.81  0.89  0.81  0.75  0.70  0.70  0.71
0.75  0.70  0.68  0.66  0.71  0.78  0.88  0.78  0.69  0.61  0.62  0.64  0.69  0.65  0.65  0.66  0.73  0.81  0.89  0.81  0.75  0.70  0.70  0.71
0.75  0.70  0.68  0.66  0.71  0.78  0.88  0.78  0.69  0.61  0.62  0.64  0.69  0.65  0.65  0.66  0.73  0.81  0.89  0.81  0.75  0.70  0.70  0.71
0.75  0.70  0.68  0.66  0.71  0.78  0.88  0.78  0.69  0.61  0.62  0.64  0.69  0.65  0.65  0.66  0.73  0.81  0.89  0.81  0.75  0.70  0.70  0.71
0.75  0.70  0.68  0.66  0.71  0.78  0.88  0.78  0.69  0.61  0.62  0.64  0.69  0.65  0.65  0.66  0.73  0.81  0.89  0.81  0.75  0.70  0.70  0.71
0.75  0.70  0.68  0.66  0.71  0.78  0.88  0.78  0.69  0.61  0.62  0.64  0.69  0.65  0.65  0.66  0.73  0.81  0.89  0.81  0.75  0.70  0.70  0.71
0.75  0.70  0.68  0.66  0.71  0.78  0.88  0.78  0.69  0.61  0.62  0.64  0.69  0.65  0.65  0.66  0.73  0.81  0.89  0.81  0.75  0.70  0.70  0.71
0.75  0.70  0.68  0.66  0.71  0.78  0.88  0.78  0.69  0.61  0.62  0.64  0.69  0.65  0.65  0.66  0.73  0.81  0.89  0.81  0.75  0.70  0.70  0.71
0.75  0.70  0.68  0.66  0.71  0.78  0.88  0.78  0.69  0.61  0.62  0.64  0.69  0.65  0.65  0.66  0.73  0.81  0.89  0.81  0.75  0.70  0.70  0.71
0.75  0.70  0.68  0.66  0.71  0.78  0.88  0.78  0.69  0.61  0.62  0.64  0.69  0.65  0.65  0.66  0.73  0.81  0.89  0.81  0.75  0.70  0.70  0.71
0.75  0.70  0.68  0.66  0.71  0.78  0.88  0.78  0.69  0.61  0.62  0.64  0.69  0.65  0.65  0.66  0.73  0.81  0.89  0.81  0.75  0.70  0.70  0.71
0.75  0.70  0.68  0.66  0.71  0.78  0.88  0.78  0.69  0.61  0.62  0.64  0.69  0.65  0.65  0.66  0.73  0.81  0.89  0.81  0.75  0.70  0.70  0.71
0.75  0.70  0.68  0.66  0.71  0.78  0.88  0.78  0.69  0.61  0.62  0.64  0.69  0.65  0.65  0.66  0.73  0.81  0.89  0.81  0.75  0.70  0.70  0.71
0.75  0.70  0.68  0.66  0.71  0.78  0.88  0.78  0.69  0.61  0.62  0.64  0.69  0.65  0.65  0.66  0.73  0.81  0.89  0.81  0.75  0.70  0.70  0.71
0.75  0.70  0.68  0.66  0.71  0.78  0.88  0.78  0.69  0.61  0.62  0.64  0.69  0.65  0.65  0.66  0.73  0.81  0.89  0.81  0.75  0.70  0.70  0.71
0.75  0.70  0.68  0.66  0.71  0.78  0.88  0.78  0.69  0.61  0.62  0.64  0.69  0.65  0.65  0.66  0.73  0.81  0.89  0.81  0.75  0.70  0.70  0.71
0.75  0.70  0.68  0.66  0.71  0.78  0.88  0.78  0.69  0.61  0.62  0.64  0.69  0.65  0.65  0.66  0.73  0.81  0.89  0.81  0.75  0.70  0.70  0.71
0.75  0.70  0.68  0.66  0.71  0.78  0.88  0.78  0.69  0.61  0.62  0.64  0.69  0.65  0.65  0.66  0.73  0.81  0.89  0.81  0.75  0.70  0.70  0.71
$ ilon ilat of the cell. lon: 7.8, 34.4
5   7
$ sizes of the cell in km
    73.469       82.887       96.196      115.373      105.759       97.771       88.956       97.771      105.759      115.373       96.196       82.887       73.469       82.887       96.196      115.373      105.759       97.771       88.956       97.771      105.759      115.373       96.196       82.887
$ mean alpha: 0.584081216351
$ mean beta: 0.717684717767
$alpha by ik, ith
0.50  0.50  0.50  0.50  0.60  0.72  0.88  0.72  0.60  0.50  0.50  0.50  0.50  0.50  0.50  0.50  0.60  0.72  0.88  0.72  0.60  0.50  0.50  0.50
0.50  0.50  0.50  0.50  0.60  0.72  0.88  0.72  0.60  0.50  0.50  0.50  0.50  0.50  0.50  0.50  0.60  0.72  0.88  0.72  0.60  0.50  0.50  0.50
0.50  0.50  0.50  0.50  0.60  0.72  0.88  0.72  0.60  0.50  0.50  0.50  0.50  0.50  0.50  0.50  0.60  0.72  0.88  0.72  0.60  0.50  0.50  0.50
0.50  0.50  0.50  0.50  0.60  0.72  0.88  0.72  0.60  0.50  0.50  0.50  0.50  0.50  0.50  0.50  0.60  0.72  0.88  0.72  0.60  0.50  0.50  0.50
0.50  0.50  0.50  0.50  0.60  0.72  0.88  0.72  0.60  0.50  0.50  0.50  0.50  0.50  0.50  0.50  0.60  0.72  0.88  0.72  0.60  0.50  0.50  0.50
0.50  0.50  0.50  0.50  0.60  0.72  0.88  0.72  0.60  0.50  0.50  0.50  0.50  0.50  0.50  0.50  0.60  0.72  0.88  0.72  0.60  0.50  0.50  0.50
0.50  0.50  0.50  0.50  0.60  0.72  0.88  0.72  0.60  0.50  0.50  0.50  0.50  0.50  0.50  0.50  0.60  0.72  0.88  0.72  0.60  0.50  0.50  0.50
0.50  0.50  0.50  0.50  0.60  0.72  0.88  0.72  0.60  0.50  0.50  0.50  0.50  0.50  0.50  0.50  0.60  0.72  0.88  0.72  0.60  0.50  0.50  0.50
0.50  0.50  0.50  0.50  0.60  0.72  0.88  0.72  0.60  0.50  0.50  0.50  0.50  0.50  0.50  0.50  0.60  0.72  0.88  0.72  0.60  0.50  0.50  0.50
0.50  0.50  0.50  0.50  0.60  0.72  0.88  0.72  0.60  0.50  0.50  0.50  0.50  0.50  0.50  0.50  0.60  0.72  0.88  0.72  0.60  0.50  0.50  0.50
0.50  0.50  0.50  0.50  0.60  0.72  0.88  0.72  0.60  0.50  0.50  0.50  0.50  0.50  0.50  0.50  0.60  0.72  0.88  0.72  0.60  0.50  0.50  0.50
0.50  0.50  0.50  0.50  0.60  0.72  0.88  0.72  0.60  0.50  0.50  0.50  0.50  0.50  0.50  0.50  0.60  0.72  0.88  0.72  0.60  0.50  0.50  0.50
0.50  0.50  0.50  0.50  0.60  0.72  0.88  0.72  0.60  0.50  0.50  0.50  0.50  0.50  0.50  0.50  0.60  0.72  0.88  0.72  0.60  0.50  0.50  0.50
0.50  0.50  0.50  0.50  0.60  0.72  0.88  0.72  0.60  0.50  0.50  0.50  0.50  0.50  0.50  0.50  0.60  0.72  0.88  0.72  0.60  0.50  0.50  0.50
0.50  0.50  0.50  0.50  0.60  0.72  0.88  0.72  0.60  0.50  0.50  0.50  0.50  0.50  0.50  0.50  0.60  0.72  0.88  0.72  0.60  0.50  0.50  0.50
0.50  0.50  0.50  0.50  0.60  0.72  0.88  0.72  0.60  0.50  0.50  0.50  0.50  0.50  0.50  0.50  0.60  0.72  0.88  0.72  0.60  0.50  0.50  0.50
0.50  0.50  0.50  0.50  0.60  0.72  0.88  0.72  0.60  0.50  0.50  0.50  0.50  0.50  0.50  0.50  0.60  0.72  0.88  0.72  0.60  0.50  0.50  0.50
0.50  0.50  0.50  0.50  0.60  0.72  0.88  0.72  0.60  0.50  0.50  0.50  0.50  0.50  0.50  0.50  0.60  0.72  0.88  0.72  0.60  0.50  0.50  0.50
0.50  0.50  0.50  0.50  0.60  0.72  0.88  0.72  0.60  0.50  0.50  0.50  0.50  0.50  0.50  0.50  0.60  0.72  0.88  0.72  0.60  0.50  0.50  0.50
0.50  0.50  0.50  0.50  0.60  0.72  0.88  0.72  0.60  0.50  0.50  0.50  0.50  0.50  0.50  0.50  0.60  0.72  0.88  0.72  0.60  0.50  0.50  0.50
0.50  0.50  0.50  0.50  0.60  0.72  0.88  0.72  0.60  0.50  0.50  0.50  0.50  0.50  0.50  0.50  0.60  0.72  0.88  0.72  0.60  0.50  0.50  0.50
0.50  0.50  0.50  0.50  0.60  0.72  0.88  0.72  0.60  0.50  0.50  0.50  0.50  0.50  0.50  0.50  0.60  0.72  0.88  0.72  0.60  0.50  0.50  0.50
0.50  0.50  0.50  0.50  0.60  0.72  0.88  0.72  0.60  0.50  0.50  0.50  0.50  0.50  0.50  0.50  0.60  0.72  0.88  0.72  0.60  0.50  0.50  0.50
0.50  0.50  0.50  0.50  0.60  0.72  0.88  0.72  0.60  0.50  0.50  0.50  0.50  0.50  0.50  0.50  0.60  0.72  0.88  0.72  0.60  0.50  0.50  0.50
0.50  0.50  0.50  0.50  0.60  0.72  0.88  0.72  0.60  0.50  0.50  0.50  0.50  0.50  0.50  0.50  0.60  0.72  0.88  0.72  0.60  0.50  0.50  0.50
$beta by ik, ith
0.75  0.70  0.68  0.66  0.71  0.78  0.88  0.78  0.69  0.61  0.62  0.64  0.69  0.65  0.65  0.66  0.73  0.81  0.89  0.81  0.75  0.70  0.70  0.71
0.75  0.70  0.68  0.66  0.71  0.78  0.88  0.78  0.69  0.61  0.62  0.64  0.69  0.65  0.65  0.66  0.73  0.81  0.89  0.81  0.75  0.70  0.70  0.71
0.75  0.70  0.68  0.66  0.71  0.78  0.88  0.78  0.69  0.61  0.62  0.64  0.69  0.65  0.65  0.66  0.73  0.81  0.89  0.81  0.75  0.70  0.70  0.71
0.75  0.70  0.68  0.66  0.71  0.78  0.88  0.78  0.69  0.61  0.62  0.64  0.69  0.65  0.65  0.66  0.73  0.81  0.89  0.81  0.75  0.70  0.70  0.71
0.75  0.70  0.68  0.66  0.71  0.78  0.88  0.78  0.69  0.61  0.62  0.64  0.69  0.65  0.65  0.66  0.73  0.81  0.89  0.81  0.75  0.70  0.70  0.71
0.75  0.70  0.68  0.66  0.71  0.78  0.88  0.78  0.69  0.61  0.62  0.64  0.69  0.65  0.65  0.66  0.73  0.81  0.89  0.81  0.75  0.70  0.70  0.71
0.75  0.70  0.68  0.66  0.71  0.78  0.88  0.78  0.69  0.61  0.62  0.64  0.69  0.65  0.65  0.66  0.73  0.81  0.89  0.81  0.75  0.70  0.70  0.71
0.75  0.70  0.68  0.66  0.71  0.78  0.88  0.78  0.69  0.61  0.62  0.64  0.69  0.65  0.65  0.66  0.73  0.81  0.89  0.81  0.75  0.70  0.70  0.71
0.75  0.70  0.68  0.66  0.71  0.78  0.88  0.78  0.69  0.61  0.62  0.64  0.69  0.65  0.65  0.66  0.73  0.81  0.89  0.81  0.75  0.70  0.70  0.71
0.75  0.70  0.68  0.66  0.71  0.78  0.88  0.78  0.69  0.61  0.62  0.64  0.69  0.65  0.65  0.66  0.73  0.81  0.89  0.81  0.75  0.70  0.70  0.71
0.75  0.70  0.68  0.66  0.71  0.78  0.88  0.78  0.69  0.61  0.62  0.64  0.69  0.65  0.65  0.66  0.73  0.81  0.89  0.81  0.75  0.70  0.70  0.71
0.75  0.70  0.68  0.66  0.71  0.78  0.88  0.78  0.69  0.61  0.62  0.64  0.69  0.65  0.65  0.66  0.73  0.81  0.89  0.81  0.75  0.70  0.70  0.71
0.75  0.70  0.68  0.66  0.71  0.78  0.88  0.78  0.69  0.61  0.62  0.64  0.69  0.65  0.65  0.66  0.73  0.81  0.89  0.81  0.75  0.70  0.70  0.71
0.75  0.70  0.68  0.66  0.71  0.78  0.88  0.78  0.69  0.61  0.62  0.64  0.69  0.65  0.65  0.66  0.73  0.81  0.89  0.81  0.75  0.70  0.70  0.71
0.75  0.70  0.68  0.66  0.71  0.78  0.88  0.78  0.69  0.61  0.62  0.64  0.69  0.65  0.65  0.66  0.73  0.81  0.89  0.81  0.75  0.70  0.70  0.71
0.75  0.70  0.68  0.66  0.71  0.78  0.88  0.78  0.69  0.61  0.62  0.64  0.69  0.65  0.65  0.66  0.73  0.81  0.89  0.81  0.75  0.70  0.70  0.71
0.75  0.70  0.68  0.66  0.71  0.78  0.88  0.78  0.69  0.61  0.62  0.64  0.69  0.65  0.65  0.66  0.73  0.81  0.89  0.81  0.75  0.70  0.70  0.71
0.75  0.70  0.68  0.66  0.71  0.78  0.88  0.78  0.69  0.61  0.62  0.64  0.69  0.65  0.65  0.66  0.73  0.81  0.89  0.81  0.75  0.70  0.70  0.71
0.75  0.70  0.68  0.66  0.71  0.78  0.88  0.78  0.69  0.61  0.62  0.64  0.69  0.65  0.65  0.66  0.73  0.81  0.89  0.81  0.75  0.70  0.70  0.71
0.75  0.70  0.68  0.66  0.71  0.78  0.88  0.78  0.69  0.61  0.62  0.64  0.69  0.65  0.65  0.66  0.73  0.81  0.89  0.81  0.75  0.70  0.70  0.71
0.75  0.70  0.68  0.66  0.71  0.78  0.88  0.78  0.69  0.61  0.62  0.64  0.69  0.65  0.65  0.66  0.73  0.81  0.89  0.81  0.75  0.70  0.70  0.71
0.75  0.70  0.68  0.66  0.71  0.78  0.88  0.78  0.69  0.61  0.62  0.64  0.69  0.65  0.65  0.66  0.73  0.81  0.89  0.81  0.75  0.70  0.70  0.71
0.75  0.70  0.68  0.66  0.71  0.78  0.88  0.78  0.69  0.61  0.62  0.64  0.69  0.65  0.65  0.66  0.73  0.81  0.89  0.81  0.75  0.70  0.70  0.71
0.75  0.70  0.68  0.66  0.71  0.78  0.88  0.78  0.69  0.61  0.62  0.64  0.69  0.65  0.65  0.66  0.73  0.81  0.89  0.81  0.75  0.70  0.70  0.71
0.75  0.70  0.68  0.66  0.71  0.78  0.88  0.78  0.69  0.61  0.62  0.64  0.69  0.65  0.65  0.66  0.73  0.81  0.89  0.81  0.75  0.70  0.70  0.71
$ ilon ilat of the cell. lon: 7.8, 35.2
5   8
$ sizes of the cell in km
    72.761       82.166       95.575      114.923      105.571       97.727       88.956       97.727      105.571      114.923       95.575       82.166       72.761       82.166       95.575      114.923      105.571       97.727       88.956       97.727      105.571      114.923       95.575       82.166
$ mean alpha: 0.584081216351
$ mean beta: 0.717684717767
$alpha by ik, ith
0.50  0.50  0.50  0.50  0.60  0.72  0.88  0.72  0.60  0.50  0.50  0.50  0.50  0.50  0.50  0.50  0.60  0.72  0.88  0.72  0.60  0.50  0.50  0.50
0.50  0.50  0.50  0.50  0.60  0.72  0.88  0.72  0.60  0.50  0.50  0.50  0.50  0.50  0.50  0.50  0.60  0.72  0.88  0.72  0.60  0.50  0.50  0.50
0.50  0.50  0.50  0.50  0.60  0.72  0.88  0.72  0.60  0.50  0.50  0.50  0.50  0.50  0.50  0.50  0.60  0.72  0.88  0.72  0.60  0.50  0.50  0.50
0.50  0.50  0.50  0.50  0.60  0.72  0.88  0.72  0.60  0.50  0.50  0.50  0.50  0.50  0.50  0.50  0.60  0.72  0.88  0.72  0.60  0.50  0.50  0.50
0.50  0.50  0.50  0.50  0.60  0.72  0.88  0.72  0.60  0.50  0.50  0.50  0.50  0.50  0.50  0.50  0.60  0.72  0.88  0.72  0.60  0.50  0.50  0.50
0.50  0.50  0.50  0.50  0.60  0.72  0.88  0.72  0.60  0.50  0.50  0.50  0.50  0.50  0.50  0.50  0.60  0.72  0.88  0.72  0.60  0.50  0.50  0.50
0.50  0.50  0.50  0.50  0.60  0.72  0.88  0.72  0.60  0.50  0.50  0.50  0.50  0.50  0.50  0.50  0.60  0.72  0.88  0.72  0.60  0.50  0.50  0.50
0.50  0.50  0.50  0.50  0.60  0.72  0.88  0.72  0.60  0.50  0.50  0.50  0.50  0.50  0.50  0.50  0.60  0.72  0.88  0.72  0.60  0.50  0.50  0.50
0.50  0.50  0.50  0.50  0.60  0.72  0.88  0.72  0.60  0.50  0.50  0.50  0.50  0.50  0.50  0.50  0.60  0.72  0.88  0.72  0.60  0.50  0.50  0.50
0.50  0.50  0.50  0.50  0.60  0.72  0.88  0.72  0.60  0.50  0.50  0.50  0.50  0.50  0.50  0.50  0.60  0.72  0.88  0.72  0.60  0.50  0.50  0.50
0.50  0.50  0.50  0.50  0.60  0.72  0.88  0.72  0.60  0.50  0.50  0.50  0.50  0.50  0.50  0.50  0.60  0.72  0.88  0.72  0.60  0.50  0.50  0.50
0.50  0.50  0.50  0.50  0.60  0.72  0.88  0.72  0.60  0.50  0.50  0.50  0.50  0.50  0.50  0.50  0.60  0.72  0.88  0.72  0.60  0.50  0.50  0.50
0.50  0.50  0.50  0.50  0.60  0.72  0.88  0.72  0.60  0.50  0.50  0.50  0.50  0.50  0.50  0.50  0.60  0.72  0.88  0.72  0.60  0.50  0.50  0.50
0.50  0.50  0.50  0.50  0.60  0.72  0.88  0.72  0.60  0.50  0.50  0.50  0.50  0.50  0.50  0.50  0.60  0.72  0.88  0.72  0.60  0.50  0.50  0.50
0.50  0.50  0.50  0.50  0.60  0.72  0.88  0.72  0.60  0.50  0.50  0.50  0.50  0.50  0.50  0.50  0.60  0.72  0.88  0.72  0.60  0.50  0.50  0.50
0.50  0.50  0.50  0.50  0.60  0.72  0.88  0.72  0.60  0.50  0.50  0.50  0.50  0.50  0.50  0.50  0.60  0.72  0.88  0.72  0.60  0.50  0.50  0.50
0.50  0.50  0.50  0.50  0.60  0.72  0.88  0.72  0.60  0.50  0.50  0.50  0.50  0.50  0.50  0.50  0.60  0.72  0.88  0.72  0.60  0.50  0.50  0.50
0.50  0.50  0.50  0.50  0.60  0.72  0.88  0.72  0.60  0.50  0.50  0.50  0.50  0.50  0.50  0.50  0.60  0.72  0.88  0.72  0.60  0.50  0.50  0.50
0.50  0.50  0.50  0.50  0.60  0.72  0.88  0.72  0.60  0.50  0.50  0.50  0.50  0.50  0.50  0.50  0.60  0.72  0.88  0.72  0.60  0.50  0.50  0.50
0.50  0.50  0.50  0.50  0.60  0.72  0.88  0.72  0.60  0.50  0.50  0.50  0.50  0.50  0.50  0.50  0.60  0.72  0.88  0.72  0.60  0.50  0.50  0.50
0.50  0.50  0.50  0.50  0.60  0.72  0.88  0.72  0.60  0.50  0.50  0.50  0.50  0.50  0.50  0.50  0.60  0.72  0.88  0.72  0.60  0.50  0.50  0.50
0.50  0.50  0.50  0.50  0.60  0.72  0.88  0.72  0.60  0.50  0.50  0.50  0.50  0.50  0.50  0.50  0.60  0.72  0.88  0.72  0.60  0.50  0.50  0.50
0.50  0.50  0.50  0.50  0.60  0.72  0.88  0.72  0.60  0.50  0.50  0.50  0.50  0.50  0.50  0.50  0.60  0.72  0.88  0.72  0.60  0.50  0.50  0.50
0.50  0.50  0.50  0.50  0.60  0.72  0.88  0.72  0.60  0.50  0.50  0.50  0.50  0.50  0.50  0.50  0.60  0.72  0.88  0.72  0.60  0.50  0.50  0.50
0.50  0.50  0.50  0.50  0.60  0.72  0.88  0.72  0.60  0.50  0.50  0.50  0.50  0.50  0.50  0.50  0.60  0.72  0.88  0.72  0.60  0.50  0.50  0.50
$beta by ik, ith
0.75  0.70  0.68  0.66  0.71  0.78  0.88  0.78  0.69  0.61  0.62  0.64  0.69  0.65  0.65  0.66  0.73  0.81  0.89  0.81  0.75  0.70  0.70  0.71
0.75  0.70  0.68  0.66  0.71  0.78  0.88  0.78  0.69  0.61  0.62  0.64  0.69  0.65  0.65  0.66  0.73  0.81  0.89  0.81  0.75  0.70  0.70  0.71
0.75  0.70  0.68  0.66  0.71  0.78  0.88  0.78  0.69  0.61  0.62  0.64  0.69  0.65  0.65  0.66  0.73  0.81  0.89  0.81  0.75  0.70  0.70  0.71
0.75  0.70  0.68  0.66  0.71  0.78  0.88  0.78  0.69  0.61  0.62  0.64  0.69  0.65  0.65  0.66  0.73  0.81  0.89  0.81  0.75  0.70  0.70  0.71
0.75  0.70  0.68  0.66  0.71  0.78  0.88  0.78  0.69  0.61  0.62  0.64  0.69  0.65  0.65  0.66  0.73  0.81  0.89  0.81  0.75  0.70  0.70  0.71
0.75  0.70  0.68  0.66  0.71  0.78  0.88  0.78  0.69  0.61  0.62  0.64  0.69  0.65  0.65  0.66  0.73  0.81  0.89  0.81  0.75  0.70  0.70  0.71
0.75  0.70  0.68  0.66  0.71  0.78  0.88  0.78  0.69  0.61  0.62  0.64  0.69  0.65  0.65  0.66  0.73  0.81  0.89  0.81  0.75  0.70  0.70  0.71
0.75  0.70  0.68  0.66  0.71  0.78  0.88  0.78  0.69  0.61  0.62  0.64  0.69  0.65  0.65  0.66  0.73  0.81  0.89  0.81  0.75  0.70  0.70  0.71
0.75  0.70  0.68  0.66  0.71  0.78  0.88  0.78  0.69  0.61  0.62  0.64  0.69  0.65  0.65  0.66  0.73  0.81  0.89  0.81  0.75  0.70  0.70  0.71
0.75  0.70  0.68  0.66  0.71  0.78  0.88  0.78  0.69  0.61  0.62  0.64  0.69  0.65  0.65  0.66  0.73  0.81  0.89  0.81  0.75  0.70  0.70  0.71
0.75  0.70  0.68  0.66  0.71  0.78  0.88  0.78  0.69  0.61  0.62  0.64  0.69  0.65  0.65  0.66  0.73  0.81  0.89  0.81  0.75  0.70  0.70  0.71
0.75  0.70  0.68  0.66  0.71  0.78  0.88  0.78  0.69  0.61  0.62  0.64  0.69  0.65  0.65  0.66  0.73  0.81  0.89  0.81  0.75  0.70  0.70  0.71
0.75  0.70  0.68  0.66  0.71  0.78  0.88  0.78  0.69  0.61  0.62  0.64  0.69  0.65  0.65  0.66  0.73  0.81  0.89  0.81  0.75  0.70  0.70  0.71
0.75  0.70  0.68  0.66  0.71  0.78  0.88  0.78  0.69  0.61  0.62  0.64  0.69  0.65  0.65  0.66  0.73  0.81  0.89  0.81  0.75  0.70  0.70  0.71
0.75  0.70  0.68  0.66  0.71  0.78  0.88  0.78  0.69  0.61  0.62  0.64  0.69  0.65  0.65  0.66  0.73  0.81  0.89  0.81  0.75  0.70  0.70  0.71
0.75  0.70  0.68  0.66  0.71  0.78  0.88  0.78  0.69  0.61  0.62  0.64  0.69  0.65  0.65  0.66  0.73  0.81  0.89  0.81  0.75  0.70  0.70  0.71
0.75  0.70  0.68  0.66  0.71  0.78  0.88  0.78  0.69  0.61  0.62  0.64  0.69  0.65  0.65  0.66  0.73  0.81  0.89  0.81  0.75  0.70  0.70  0.71
0.75  0.70  0.68  0.66  0.71  0.78  0.88  0.78  0.69  0.61  0.62  0.64  0.69  0.65  0.65  0.66  0.73  0.81  0.89  0.81  0.75  0.70  0.70  0.71
0.75  0.70  0.68  0.66  0.71  0.78  0.88  0.78  0.69  0.61  0.62  0.64  0.69  0.65  0.65  0.66  0.73  0.81  0.89  0.81  0.75  0.70  0.70  0.71
0.75  0.70  0.68  0.66  0.71  0.78  0.88  0.78  0.69  0.61  0.62  0.64  0.69  0.65  0.65  0.66  0.73  0.81  0.89  0.81  0.75  0.70  0.70  0.71
0.75  0.70  0.68  0.66  0.71  0.78  0.88  0.78  0.69  0.61  0.62  0.64  0.69  0.65  0.65  0.66  0.73  0.81  0.89  0.81  0.75  0.70  0.70  0.71
0.75  0.70  0.68  0.66  0.71  0.78  0.88  0.78  0.69  0.61  0.62  0.64  0.69  0.65  0.65  0.66  0.73  0.81  0.89  0.81  0.75  0.70  0.70  0.71
0.75  0.70  0.68  0.66  0.71  0.78  0.88  0.78  0.69  0.61  0.62  0.64  0.69  0.65  0.65  0.66  0.73  0.81  0.89  0.81  0.75  0.70  0.70  0.71
0.75  0.70  0.68  0.66  0.71  0.78  0.88  0.78  0.69  0.61  0.62  0.64  0.69  0.65  0.65  0.66  0.73  0.81  0.89  0.81  0.75  0.70  0.70  0.71
0.75  0.70  0.68  0.66  0.71  0.78  0.88  0.78  0.69  0.61  0.62  0.64  0.69  0.65  0.65  0.66  0.73  0.81  0.89  0.81  0.75  0.70  0.70  0.71
$ ilon ilat of the cell. lon: 7.8, 36.0
5   9
$ sizes of the cell in km
    72.040       81.430       94.943      114.468      105.381       97.683       88.956       97.683      105.381      114.468       94.943       81.430       72.040       81.430       94.943      114.468      105.381       97.683       88.956       97.683      105.381      114.468       94.943       81.430
$ mean alpha: 0.584081216351
$ mean beta: 0.717684717767
$alpha by ik, ith
0.50  0.50  0.50  0.50  0.60  0.72  0.88  0.72  0.60  0.50  0.50  0.50  0.50  0.50  0.50  0.50  0.60  0.72  0.88  0.72  0.60  0.50  0.50  0.50
0.50  0.50  0.50  0.50  0.60  0.72  0.88  0.72  0.60  0.50  0.50  0.50  0.50  0.50  0.50  0.50  0.60  0.72  0.88  0.72  0.60  0.50  0.50  0.50
0.50  0.50  0.50  0.50  0.60  0.72  0.88  0.72  0.60  0.50  0.50  0.50  0.50  0.50  0.50  0.50  0.60  0.72  0.88  0.72  0.60  0.50  0.50  0.50
0.50  0.50  0.50  0.50  0.60  0.72  0.88  0.72  0.60  0.50  0.50  0.50  0.50  0.50  0.50  0.50  0.60  0.72  0.88  0.72  0.60  0.50  0.50  0.50
0.50  0.50  0.50  0.50  0.60  0.72  0.88  0.72  0.60  0.50  0.50  0.50  0.50  0.50  0.50  0.50  0.60  0.72  0.88  0.72  0.60  0.50  0.50  0.50
0.50  0.50  0.50  0.50  0.60  0.72  0.88  0.72  0.60  0.50  0.50  0.50  0.50  0.50  0.50  0.50  0.60  0.72  0.88  0.72  0.60  0.50  0.50  0.50
0.50  0.50  0.50  0.50  0.60  0.72  0.88  0.72  0.60  0.50  0.50  0.50  0.50  0.50  0.50  0.50  0.60  0.72  0.88  0.72  0.60  0.50  0.50  0.50
0.50  0.50  0.50  0.50  0.60  0.72  0.88  0.72  0.60  0.50  0.50  0.50  0.50  0.50  0.50  0.50  0.60  0.72  0.88  0.72  0.60  0.50  0.50  0.50
0.50  0.50  0.50  0.50  0.60  0.72  0.88  0.72  0.60  0.50  0.50  0.50  0.50  0.50  0.50  0.50  0.60  0.72  0.88  0.72  0.60  0.50  0.50  0.50
0.50  0.50  0.50  0.50  0.60  0.72  0.88  0.72  0.60  0.50  0.50  0.50  0.50  0.50  0.50  0.50  0.60  0.72  0.88  0.72  0.60  0.50  0.50  0.50
0.50  0.50  0.50  0.50  0.60  0.72  0.88  0.72  0.60  0.50  0.50  0.50  0.50  0.50  0.50  0.50  0.60  0.72  0.88  0.72  0.60  0.50  0.50  0.50
0.50  0.50  0.50  0.50  0.60  0.72  0.88  0.72  0.60  0.50  0.50  0.50  0.50  0.50  0.50  0.50  0.60  0.72  0.88  0.72  0.60  0.50  0.50  0.50
0.50  0.50  0.50  0.50  0.60  0.72  0.88  0.72  0.60  0.50  0.50  0.50  0.50  0.50  0.50  0.50  0.60  0.72  0.88  0.72  0.60  0.50  0.50  0.50
0.50  0.50  0.50  0.50  0.60  0.72  0.88  0.72  0.60  0.50  0.50  0.50  0.50  0.50  0.50  0.50  0.60  0.72  0.88  0.72  0.60  0.50  0.50  0.50
0.50  0.50  0.50  0.50  0.60  0.72  0.88  0.72  0.60  0.50  0.50  0.50  0.50  0.50  0.50  0.50  0.60  0.72  0.88  0.72  0.60  0.50  0.50  0.50
0.50  0.50  0.50  0.50  0.60  0.72  0.88  0.72  0.60  0.50  0.50  0.50  0.50  0.50  0.50  0.50  0.60  0.72  0.88  0.72  0.60  0.50  0.50  0.50
0.50  0.50  0.50  0.50  0.60  0.72  0.88  0.72  0.60  0.50  0.50  0.50  0.50  0.50  0.50  0.50  0.60  0.72  0.88  0.72  0.60  0.50  0.50  0.50
0.50  0.50  0.50  0.50  0.60  0.72  0.88  0.72  0.60  0.50  0.50  0.50  0.50  0.50  0.50  0.50  0.60  0.72  0.88  0.72  0.60  0.50  0.50  0.50
0.50  0.50  0.50  0.50  0.60  0.72  0.88  0.72  0.60  0.50  0.50  0.50  0.50  0.50  0.50  0.50  0.60  0.72  0.88  0.72  0.60  0.50  0.50  0.50
0.50  0.50  0.50  0.50  0.60  0.72  0.88  0.72  0.60  0.50  0.50  0.50  0.50  0.50  0.50  0.50  0.60  0.72  0.88  0.72  0.60  0.50  0.50  0.50
0.50  0.50  0.50  0.50  0.60  0.72  0.88  0.72  0.60  0.50  0.50  0.50  0.50  0.50  0.50  0.50  0.60  0.72  0.88  0.72  0.60  0.50  0.50  0.50
0.50  0.50  0.50  0.50  0.60  0.72  0.88  0.72  0.60  0.50  0.50  0.50  0.50  0.50  0.50  0.50  0.60  0.72  0.88  0.72  0.60  0.50  0.50  0.50
0.50  0.50  0.50  0.50  0.60  0.72  0.88  0.72  0.60  0.50  0.50  0.50  0.50  0.50  0.50  0.50  0.60  0.72  0.88  0.72  0.60  0.50  0.50  0.50
0.50  0.50  0.50  0.50  0.60  0.72  0.88  0.72  0.60  0.50  0.50  0.50  0.50  0.50  0.50  0.50  0.60  0.72  0.88  0.72  0.60  0.50  0.50  0.50
0.50  0.50  0.50  0.50  0.60  0.72  0.88  0.72  0.60  0.50  0.50  0.50  0.50  0.50  0.50  0.50  0.60  0.72  0.88  0.72  0.60  0.50  0.50  0.50
$beta by ik, ith
0.75  0.70  0.68  0.66  0.71  0.78  0.88  0.78  0.69  0.61  0.62  0.64  0.69  0.65  0.65  0.66  0.73  0.81  0.89  0.81  0.75  0.70  0.70  0.71
0.75  0.70  0.68  0.66  0.71  0.78  0.88  0.78  0.69  0.61  0.62  0.64  0.69  0.65  0.65  0.66  0.73  0.81  0.89  0.81  0.75  0.70  0.70  0.71
0.75  0.70  0.68  0.66  0.71  0.78  0.88  0.78  0.69  0.61  0.62  0.64  0.69  0.65  0.65  0.66  0.73  0.81  0.89  0.81  0.75  0.70  0.70  0.71
0.75  0.70  0.68  0.66  0.71  0.78  0.88  0.78  0.69  0.61  0.62  0.64  0.69  0.65  0.65  0.66  0.73  0.81  0.89  0.81  0.75  0.70  0.70  0.71
0.75  0.70  0.68  0.66  0.71  0.78  0.88  0.78  0.69  0.61  0.62  0.64  0.69  0.65  0.65  0.66  0.73  0.81  0.89  0.81  0.75  0.70  0.70  0.71
0.75  0.70  0.68  0.66  0.71  0.78  0.88  0.78  0.69  0.61  0.62  0.64  0.69  0.65  0.65  0.66  0.73  0.81  0.89  0.81  0.75  0.70  0.70  0.71
0.75  0.70  0.68  0.66  0.71  0.78  0.88  0.78  0.69  0.61  0.62  0.64  0.69  0.65  0.65  0.66  0.73  0.81  0.89  0.81  0.75  0.70  0.70  0.71
0.75  0.70  0.68  0.66  0.71  0.78  0.88  0.78  0.69  0.61  0.62  0.64  0.69  0.65  0.65  0.66  0.73  0.81  0.89  0.81  0.75  0.70  0.70  0.71
0.75  0.70  0.68  0.66  0.71  0.78  0.88  0.78  0.69  0.61  0.62  0.64  0.69  0.65  0.65  0.66  0.73  0.81  0.89  0.81  0.75  0.70  0.70  0.71
0.75  0.70  0.68  0.66  0.71  0.78  0.88  0.78  0.69  0.61  0.62  0.64  0.69  0.65  0.65  0.66  0.73  0.81  0.89  0.81  0.75  0.70  0.70  0.71
0.75  0.70  0.68  0.66  0.71  0.78  0.88  0.78  0.69  0.61  0.62  0.64  0.69  0.65  0.65  0.66  0.73  0.81  0.89  0.81  0.75  0.70  0.70  0.71
0.75  0.70  0.68  0.66  0.71  0.78  0.88  0.78  0.69  0.61  0.62  0.64  0.69  0.65  0.65  0.66  0.73  0.81  0.89  0.81  0.75  0.70  0.70  0.71
0.75  0.70  0.68  0.66  0.71  0.78  0.88  0.78  0.69  0.61  0.62  0.64  0.69  0.65  0.65  0.66  0.73  0.81  0.89  0.81  0.75  0.70  0.70  0.71
0.75  0.70  0.68  0.66  0.71  0.78  0.88  0.78  0.69  0.61  0.62  0.64  0.69  0.65  0.65  0.66  0.73  0.81  0.89  0.81  0.75  0.70  0.70  0.71
0.75  0.70  0.68  0.66  0.71  0.78  0.88  0.78  0.69  0.61  0.62  0.64  0.69  0.65  0.65  0.66  0.73  0.81  0.89  0.81  0.75  0.70  0.70  0.71
0.75  0.70  0.68  0.66  0.71  0.78  0.88  0.78  0.69  0.61  0.62  0.64  0.69  0.65  0.65  0.66  0.73  0.81  0.89  0.81  0.75  0.70  0.70  0.71
0.75  0.70  0.68  0.66  0.71  0.78  0.88  0.78  0.69  0.61  0.62  0.64  0.69  0.65  0.65  0.66  0.73  0.81  0.89  0.81  0.75  0.70  0.70  0.71
0.75  0.70  0.68  0.66  0.71  0.78  0.88  0.78  0.69  0.61  0.62  0.64  0.69  0.65  0.65  0.66  0.73  0.81  0.89  0.81  0.75  0.70  0.70  0.71
0.75  0.70  0.68  0.66  0.71  0.78  0.88  0.78  0.69  0.61  0.62  0.64  0.69  0.65  0.65  0.66  0.73  0.81  0.89  0.81  0.75  0.70  0.70  0.71
0.75  0.70  0.68  0.66  0.71  0.78  0.88  0.78  0.69  0.61  0.62  0.64  0.69  0.65  0.65  0.66  0.73  0.81  0.89  0.81  0.75  0.70  0.70  0.71
0.75  0.70  0.68  0.66  0.71  0.78  0.88  0.78  0.69  0.61  0.62  0.64  0.69  0.65  0.65  0.66  0.73  0.81  0.89  0.81  0.75  0.70  0.70  0.71
0.75  0.70  0.68  0.66  0.71  0.78  0.88  0.78  0.69  0.61  0.62  0.64  0.69  0.65  0.65  0.66  0.73  0.81  0.89  0.81  0.75  0.70  0.70  0.71
0.75  0.70  0.68  0.66  0.71  0.78  0.88  0.78  0.69  0.61  0.62  0.64  0.69  0.65  0.65  0.66  0.73  0.81  0.89  0.81  0.75  0.70  0.70  0.71
0.75  0.70  0.68  0.66  0.71  0.78  0.88  0.78  0.69  0.61  0.62  0.64  0.69  0.65  0.65  0.66  0.73  0.81  0.89  0.81  0.75  0.70  0.70  0.71
0.75  0.70  0.68  0.66  0.71  0.78  0.88  0.78  0.69  0.61  0.62  0.64  0.69  0.65  0.65  0.66  0.73  0.81  0.89  0.81  0.75  0.70  0.70  0.71
$ ilon ilat of the cell. lon: 7.8, 36.8
5   10
$ sizes of the cell in km
    71.304       80.681       94.301      114.006      105.188       97.638       88.956       97.638      105.188      114.006       94.301       80.681       71.304       80.681       94.301      114.006      105.188       97.638       88.956       97.638      105.188      114.006       94.301       80.681
$ mean alpha: 0.584081216351
$ mean beta: 0.717684717767
$alpha by ik, ith
0.50  0.50  0.50  0.50  0.60  0.72  0.88  0.72  0.60  0.50  0.50  0.50  0.50  0.50  0.50  0.50  0.60  0.72  0.88  0.72  0.60  0.50  0.50  0.50
0.50  0.50  0.50  0.50  0.60  0.72  0.88  0.72  0.60  0.50  0.50  0.50  0.50  0.50  0.50  0.50  0.60  0.72  0.88  0.72  0.60  0.50  0.50  0.50
0.50  0.50  0.50  0.50  0.60  0.72  0.88  0.72  0.60  0.50  0.50  0.50  0.50  0.50  0.50  0.50  0.60  0.72  0.88  0.72  0.60  0.50  0.50  0.50
0.50  0.50  0.50  0.50  0.60  0.72  0.88  0.72  0.60  0.50  0.50  0.50  0.50  0.50  0.50  0.50  0.60  0.72  0.88  0.72  0.60  0.50  0.50  0.50
0.50  0.50  0.50  0.50  0.60  0.72  0.88  0.72  0.60  0.50  0.50  0.50  0.50  0.50  0.50  0.50  0.60  0.72  0.88  0.72  0.60  0.50  0.50  0.50
0.50  0.50  0.50  0.50  0.60  0.72  0.88  0.72  0.60  0.50  0.50  0.50  0.50  0.50  0.50  0.50  0.60  0.72  0.88  0.72  0.60  0.50  0.50  0.50
0.50  0.50  0.50  0.50  0.60  0.72  0.88  0.72  0.60  0.50  0.50  0.50  0.50  0.50  0.50  0.50  0.60  0.72  0.88  0.72  0.60  0.50  0.50  0.50
0.50  0.50  0.50  0.50  0.60  0.72  0.88  0.72  0.60  0.50  0.50  0.50  0.50  0.50  0.50  0.50  0.60  0.72  0.88  0.72  0.60  0.50  0.50  0.50
0.50  0.50  0.50  0.50  0.60  0.72  0.88  0.72  0.60  0.50  0.50  0.50  0.50  0.50  0.50  0.50  0.60  0.72  0.88  0.72  0.60  0.50  0.50  0.50
0.50  0.50  0.50  0.50  0.60  0.72  0.88  0.72  0.60  0.50  0.50  0.50  0.50  0.50  0.50  0.50  0.60  0.72  0.88  0.72  0.60  0.50  0.50  0.50
0.50  0.50  0.50  0.50  0.60  0.72  0.88  0.72  0.60  0.50  0.50  0.50  0.50  0.50  0.50  0.50  0.60  0.72  0.88  0.72  0.60  0.50  0.50  0.50
0.50  0.50  0.50  0.50  0.60  0.72  0.88  0.72  0.60  0.50  0.50  0.50  0.50  0.50  0.50  0.50  0.60  0.72  0.88  0.72  0.60  0.50  0.50  0.50
0.50  0.50  0.50  0.50  0.60  0.72  0.88  0.72  0.60  0.50  0.50  0.50  0.50  0.50  0.50  0.50  0.60  0.72  0.88  0.72  0.60  0.50  0.50  0.50
0.50  0.50  0.50  0.50  0.60  0.72  0.88  0.72  0.60  0.50  0.50  0.50  0.50  0.50  0.50  0.50  0.60  0.72  0.88  0.72  0.60  0.50  0.50  0.50
0.50  0.50  0.50  0.50  0.60  0.72  0.88  0.72  0.60  0.50  0.50  0.50  0.50  0.50  0.50  0.50  0.60  0.72  0.88  0.72  0.60  0.50  0.50  0.50
0.50  0.50  0.50  0.50  0.60  0.72  0.88  0.72  0.60  0.50  0.50  0.50  0.50  0.50  0.50  0.50  0.60  0.72  0.88  0.72  0.60  0.50  0.50  0.50
0.50  0.50  0.50  0.50  0.60  0.72  0.88  0.72  0.60  0.50  0.50  0.50  0.50  0.50  0.50  0.50  0.60  0.72  0.88  0.72  0.60  0.50  0.50  0.50
0.50  0.50  0.50  0.50  0.60  0.72  0.88  0.72  0.60  0.50  0.50  0.50  0.50  0.50  0.50  0.50  0.60  0.72  0.88  0.72  0.60  0.50  0.50  0.50
0.50  0.50  0.50  0.50  0.60  0.72  0.88  0.72  0.60  0.50  0.50  0.50  0.50  0.50  0.50  0.50  0.60  0.72  0.88  0.72  0.60  0.50  0.50  0.50
0.50  0.50  0.50  0.50  0.60  0.72  0.88  0.72  0.60  0.50  0.50  0.50  0.50  0.50  0.50  0.50  0.60  0.72  0.88  0.72  0.60  0.50  0.50  0.50
0.50  0.50  0.50  0.50  0.60  0.72  0.88  0.72  0.60  0.50  0.50  0.50  0.50  0.50  0.50  0.50  0.60  0.72  0.88  0.72  0.60  0.50  0.50  0.50
0.50  0.50  0.50  0.50  0.60  0.72  0.88  0.72  0.60  0.50  0.50  0.50  0.50  0.50  0.50  0.50  0.60  0.72  0.88  0.72  0.60  0.50  0.50  0.50
0.50  0.50  0.50  0.50  0.60  0.72  0.88  0.72  0.60  0.50  0.50  0.50  0.50  0.50  0.50  0.50  0.60  0.72  0.88  0.72  0.60  0.50  0.50  0.50
0.50  0.50  0.50  0.50  0.60  0.72  0.88  0.72  0.60  0.50  0.50  0.50  0.50  0.50  0.50  0.50  0.60  0.72  0.88  0.72  0.60  0.50  0.50  0.50
0.50  0.50  0.50  0.50  0.60  0.72  0.88  0.72  0.60  0.50  0.50  0.50  0.50  0.50  0.50  0.50  0.60  0.72  0.88  0.72  0.60  0.50  0.50  0.50
$beta by ik, ith
0.75  0.70  0.68  0.66  0.71  0.78  0.88  0.78  0.69  0.61  0.62  0.64  0.69  0.65  0.65  0.66  0.73  0.81  0.89  0.81  0.75  0.70  0.70  0.71
0.75  0.70  0.68  0.66  0.71  0.78  0.88  0.78  0.69  0.61  0.62  0.64  0.69  0.65  0.65  0.66  0.73  0.81  0.89  0.81  0.75  0.70  0.70  0.71
0.75  0.70  0.68  0.66  0.71  0.78  0.88  0.78  0.69  0.61  0.62  0.64  0.69  0.65  0.65  0.66  0.73  0.81  0.89  0.81  0.75  0.70  0.70  0.71
0.75  0.70  0.68  0.66  0.71  0.78  0.88  0.78  0.69  0.61  0.62  0.64  0.69  0.65  0.65  0.66  0.73  0.81  0.89  0.81  0.75  0.70  0.70  0.71
0.75  0.70  0.68  0.66  0.71  0.78  0.88  0.78  0.69  0.61  0.62  0.64  0.69  0.65  0.65  0.66  0.73  0.81  0.89  0.81  0.75  0.70  0.70  0.71
0.75  0.70  0.68  0.66  0.71  0.78  0.88  0.78  0.69  0.61  0.62  0.64  0.69  0.65  0.65  0.66  0.73  0.81  0.89  0.81  0.75  0.70  0.70  0.71
0.75  0.70  0.68  0.66  0.71  0.78  0.88  0.78  0.69  0.61  0.62  0.64  0.69  0.65  0.65  0.66  0.73  0.81  0.89  0.81  0.75  0.70  0.70  0.71
0.75  0.70  0.68  0.66  0.71  0.78  0.88  0.78  0.69  0.61  0.62  0.64  0.69  0.65  0.65  0.66  0.73  0.81  0.89  0.81  0.75  0.70  0.70  0.71
0.75  0.70  0.68  0.66  0.71  0.78  0.88  0.78  0.69  0.61  0.62  0.64  0.69  0.65  0.65  0.66  0.73  0.81  0.89  0.81  0.75  0.70  0.70  0.71
0.75  0.70  0.68  0.66  0.71  0.78  0.88  0.78  0.69  0.61  0.62  0.64  0.69  0.65  0.65  0.66  0.73  0.81  0.89  0.81  0.75  0.70  0.70  0.71
0.75  0.70  0.68  0.66  0.71  0.78  0.88  0.78  0.69  0.61  0.62  0.64  0.69  0.65  0.65  0.66  0.73  0.81  0.89  0.81  0.75  0.70  0.70  0.71
0.75  0.70  0.68  0.66  0.71  0.78  0.88  0.78  0.69  0.61  0.62  0.64  0.69  0.65  0.65  0.66  0.73  0.81  0.89  0.81  0.75  0.70  0.70  0.71
0.75  0.70  0.68  0.66  0.71  0.78  0.88  0.78  0.69  0.61  0.62  0.64  0.69  0.65  0.65  0.66  0.73  0.81  0.89  0.81  0.75  0.70  0.70  0.71
0.75  0.70  0.68  0.66  0.71  0.78  0.88  0.78  0.69  0.61  0.62  0.64  0.69  0.65  0.65  0.66  0.73  0.81  0.89  0.81  0.75  0.70  0.70  0.71
0.75  0.70  0.68  0.66  0.71  0.78  0.88  0.78  0.69  0.61  0.62  0.64  0.69  0.65  0.65  0.66  0.73  0.81  0.89  0.81  0.75  0.70  0.70  0.71
0.75  0.70  0.68  0.66  0.71  0.78  0.88  0.78  0.69  0.61  0.62  0.64  0.69  0.65  0.65  0.66  0.73  0.81  0.89  0.81  0.75  0.70  0.70  0.71
0.75  0.70  0.68  0.66  0.71  0.78  0.88  0.78  0.69  0.61  0.62  0.64  0.69  0.65  0.65  0.66  0.73  0.81  0.89  0.81  0.75  0.70  0.70  0.71
0.75  0.70  0.68  0.66  0.71  0.78  0.88  0.78  0.69  0.61  0.62  0.64  0.69  0.65  0.65  0.66  0.73  0.81  0.89  0.81  0.75  0.70  0.70  0.71
0.75  0.70  0.68  0.66  0.71  0.78  0.88  0.78  0.69  0.61  0.62  0.64  0.69  0.65  0.65  0.66  0.73  0.81  0.89  0.81  0.75  0.70  0.70  0.71
0.75  0.70  0.68  0.66  0.71  0.78  0.88  0.78  0.69  0.61  0.62  0.64  0.69  0.65  0.65  0.66  0.73  0.81  0.89  0.81  0.75  0.70  0.70  0.71
0.75  0.70  0.68  0.66  0.71  0.78  0.88  0.78  0.69  0.61  0.62  0.64  0.69  0.65  0.65  0.66  0.73  0.81  0.89  0.81  0.75  0.70  0.70  0.71
0.75  0.70  0.68  0.66  0.71  0.78  0.88  0.78  0.69  0.61  0.62  0.64  0.69  0.65  0.65  0.66  0.73  0.81  0.89  0.81  0.75  0.70  0.70  0.71
0.75  0.70  0.68  0.66  0.71  0.78  0.88  0.78  0.69  0.61  0.62  0.64  0.69  0.65  0.65  0.66  0.73  0.81  0.89  0.81  0.75  0.70  0.70  0.71
0.75  0.70  0.68  0.66  0.71  0.78  0.88  0.78  0.69  0.61  0.62  0.64  0.69  0.65  0.65  0.66  0.73  0.81  0.89  0.81  0.75  0.70  0.70  0.71
0.75  0.70  0.68  0.66  0.71  0.78  0.88  0.78  0.69  0.61  0.62  0.64  0.69  0.65  0.65  0.66  0.73  0.81  0.89  0.81  0.75  0.70  0.70  0.71
$ ilon ilat of the cell. lon: 7.8, 37.6
5   11
$ sizes of the cell in km
    70.555       79.918       93.650      113.539      104.994       97.593       88.956       97.593      104.994      113.539       93.650       79.918       70.555       79.918       93.650      113.539      104.994       97.593       88.956       97.593      104.994      113.539       93.650       79.918
$ mean alpha: 0.584081216351
$ mean beta: 0.717684717767
$alpha by ik, ith
0.50  0.50  0.50  0.50  0.60  0.72  0.88  0.72  0.60  0.50  0.50  0.50  0.50  0.50  0.50  0.50  0.60  0.72  0.88  0.72  0.60  0.50  0.50  0.50
0.50  0.50  0.50  0.50  0.60  0.72  0.88  0.72  0.60  0.50  0.50  0.50  0.50  0.50  0.50  0.50  0.60  0.72  0.88  0.72  0.60  0.50  0.50  0.50
0.50  0.50  0.50  0.50  0.60  0.72  0.88  0.72  0.60  0.50  0.50  0.50  0.50  0.50  0.50  0.50  0.60  0.72  0.88  0.72  0.60  0.50  0.50  0.50
0.50  0.50  0.50  0.50  0.60  0.72  0.88  0.72  0.60  0.50  0.50  0.50  0.50  0.50  0.50  0.50  0.60  0.72  0.88  0.72  0.60  0.50  0.50  0.50
0.50  0.50  0.50  0.50  0.60  0.72  0.88  0.72  0.60  0.50  0.50  0.50  0.50  0.50  0.50  0.50  0.60  0.72  0.88  0.72  0.60  0.50  0.50  0.50
0.50  0.50  0.50  0.50  0.60  0.72  0.88  0.72  0.60  0.50  0.50  0.50  0.50  0.50  0.50  0.50  0.60  0.72  0.88  0.72  0.60  0.50  0.50  0.50
0.50  0.50  0.50  0.50  0.60  0.72  0.88  0.72  0.60  0.50  0.50  0.50  0.50  0.50  0.50  0.50  0.60  0.72  0.88  0.72  0.60  0.50  0.50  0.50
0.50  0.50  0.50  0.50  0.60  0.72  0.88  0.72  0.60  0.50  0.50  0.50  0.50  0.50  0.50  0.50  0.60  0.72  0.88  0.72  0.60  0.50  0.50  0.50
0.50  0.50  0.50  0.50  0.60  0.72  0.88  0.72  0.60  0.50  0.50  0.50  0.50  0.50  0.50  0.50  0.60  0.72  0.88  0.72  0.60  0.50  0.50  0.50
0.50  0.50  0.50  0.50  0.60  0.72  0.88  0.72  0.60  0.50  0.50  0.50  0.50  0.50  0.50  0.50  0.60  0.72  0.88  0.72  0.60  0.50  0.50  0.50
0.50  0.50  0.50  0.50  0.60  0.72  0.88  0.72  0.60  0.50  0.50  0.50  0.50  0.50  0.50  0.50  0.60  0.72  0.88  0.72  0.60  0.50  0.50  0.50
0.50  0.50  0.50  0.50  0.60  0.72  0.88  0.72  0.60  0.50  0.50  0.50  0.50  0.50  0.50  0.50  0.60  0.72  0.88  0.72  0.60  0.50  0.50  0.50
0.50  0.50  0.50  0.50  0.60  0.72  0.88  0.72  0.60  0.50  0.50  0.50  0.50  0.50  0.50  0.50  0.60  0.72  0.88  0.72  0.60  0.50  0.50  0.50
0.50  0.50  0.50  0.50  0.60  0.72  0.88  0.72  0.60  0.50  0.50  0.50  0.50  0.50  0.50  0.50  0.60  0.72  0.88  0.72  0.60  0.50  0.50  0.50
0.50  0.50  0.50  0.50  0.60  0.72  0.88  0.72  0.60  0.50  0.50  0.50  0.50  0.50  0.50  0.50  0.60  0.72  0.88  0.72  0.60  0.50  0.50  0.50
0.50  0.50  0.50  0.50  0.60  0.72  0.88  0.72  0.60  0.50  0.50  0.50  0.50  0.50  0.50  0.50  0.60  0.72  0.88  0.72  0.60  0.50  0.50  0.50
0.50  0.50  0.50  0.50  0.60  0.72  0.88  0.72  0.60  0.50  0.50  0.50  0.50  0.50  0.50  0.50  0.60  0.72  0.88  0.72  0.60  0.50  0.50  0.50
0.50  0.50  0.50  0.50  0.60  0.72  0.88  0.72  0.60  0.50  0.50  0.50  0.50  0.50  0.50  0.50  0.60  0.72  0.88  0.72  0.60  0.50  0.50  0.50
0.50  0.50  0.50  0.50  0.60  0.72  0.88  0.72  0.60  0.50  0.50  0.50  0.50  0.50  0.50  0.50  0.60  0.72  0.88  0.72  0.60  0.50  0.50  0.50
0.50  0.50  0.50  0.50  0.60  0.72  0.88  0.72  0.60  0.50  0.50  0.50  0.50  0.50  0.50  0.50  0.60  0.72  0.88  0.72  0.60  0.50  0.50  0.50
0.50  0.50  0.50  0.50  0.60  0.72  0.88  0.72  0.60  0.50  0.50  0.50  0.50  0.50  0.50  0.50  0.60  0.72  0.88  0.72  0.60  0.50  0.50  0.50
0.50  0.50  0.50  0.50  0.60  0.72  0.88  0.72  0.60  0.50  0.50  0.50  0.50  0.50  0.50  0.50  0.60  0.72  0.88  0.72  0.60  0.50  0.50  0.50
0.50  0.50  0.50  0.50  0.60  0.72  0.88  0.72  0.60  0.50  0.50  0.50  0.50  0.50  0.50  0.50  0.60  0.72  0.88  0.72  0.60  0.50  0.50  0.50
0.50  0.50  0.50  0.50  0.60  0.72  0.88  0.72  0.60  0.50  0.50  0.50  0.50  0.50  0.50  0.50  0.60  0.72  0.88  0.72  0.60  0.50  0.50  0.50
0.50  0.50  0.50  0.50  0.60  0.72  0.88  0.72  0.60  0.50  0.50  0.50  0.50  0.50  0.50  0.50  0.60  0.72  0.88  0.72  0.60  0.50  0.50  0.50
$beta by ik, ith
0.75  0.70  0.68  0.66  0.71  0.78  0.88  0.78  0.69  0.61  0.62  0.64  0.69  0.65  0.65  0.66  0.73  0.81  0.89  0.81  0.75  0.70  0.70  0.71
0.75  0.70  0.68  0.66  0.71  0.78  0.88  0.78  0.69  0.61  0.62  0.64  0.69  0.65  0.65  0.66  0.73  0.81  0.89  0.81  0.75  0.70  0.70  0.71
0.75  0.70  0.68  0.66  0.71  0.78  0.88  0.78  0.69  0.61  0.62  0.64  0.69  0.65  0.65  0.66  0.73  0.81  0.89  0.81  0.75  0.70  0.70  0.71
0.75  0.70  0.68  0.66  0.71  0.78  0.88  0.78  0.69  0.61  0.62  0.64  0.69  0.65  0.65  0.66  0.73  0.81  0.89  0.81  0.75  0.70  0.70  0.71
0.75  0.70  0.68  0.66  0.71  0.78  0.88  0.78  0.69  0.61  0.62  0.64  0.69  0.65  0.65  0.66  0.73  0.81  0.89  0.81  0.75  0.70  0.70  0.71
0.75  0.70  0.68  0.66  0.71  0.78  0.88  0.78  0.69  0.61  0.62  0.64  0.69  0.65  0.65  0.66  0.73  0.81  0.89  0.81  0.75  0.70  0.70  0.71
0.75  0.70  0.68  0.66  0.71  0.78  0.88  0.78  0.69  0.61  0.62  0.64  0.69  0.65  0.65  0.66  0.73  0.81  0.89  0.81  0.75  0.70  0.70  0.71
0.75  0.70  0.68  0.66  0.71  0.78  0.88  0.78  0.69  0.61  0.62  0.64  0.69  0.65  0.65  0.66  0.73  0.81  0.89  0.81  0.75  0.70  0.70  0.71
0.75  0.70  0.68  0.66  0.71  0.78  0.88  0.78  0.69  0.61  0.62  0.64  0.69  0.65  0.65  0.66  0.73  0.81  0.89  0.81  0.75  0.70  0.70  0.71
0.75  0.70  0.68  0.66  0.71  0.78  0.88  0.78  0.69  0.61  0.62  0.64  0.69  0.65  0.65  0.66  0.73  0.81  0.89  0.81  0.75  0.70  0.70  0.71
0.75  0.70  0.68  0.66  0.71  0.78  0.88  0.78  0.69  0.61  0.62  0.64  0.69  0.65  0.65  0.66  0.73  0.81  0.89  0.81  0.75  0.70  0.70  0.71
0.75  0.70  0.68  0.66  0.71  0.78  0.88  0.78  0.69  0.61  0.62  0.64  0.69  0.65  0.65  0.66  0.73  0.81  0.89  0.81  0.75  0.70  0.70  0.71
0.75  0.70  0.68  0.66  0.71  0.78  0.88  0.78  0.69  0.61  0.62  0.64  0.69  0.65  0.65  0.66  0.73  0.81  0.89  0.81  0.75  0.70  0.70  0.71
0.75  0.70  0.68  0.66  0.71  0.78  0.88  0.78  0.69  0.61  0.62  0.64  0.69  0.65  0.65  0.66  0.73  0.81  0.89  0.81  0.75  0.70  0.70  0.71
0.75  0.70  0.68  0.66  0.71  0.78  0.88  0.78  0.69  0.61  0.62  0.64  0.69  0.65  0.65  0.66  0.73  0.81  0.89  0.81  0.75  0.70  0.70  0.71
0.75  0.70  0.68  0.66  0.71  0.78  0.88  0.78  0.69  0.61  0.62  0.64  0.69  0.65  0.65  0.66  0.73  0.81  0.89  0.81  0.75  0.70  0.70  0.71
0.75  0.70  0.68  0.66  0.71  0.78  0.88  0.78  0.69  0.61  0.62  0.64  0.69  0.65  0.65  0.66  0.73  0.81  0.89  0.81  0.75  0.70  0.70  0.71
0.75  0.70  0.68  0.66  0.71  0.78  0.88  0.78  0.69  0.61  0.62  0.64  0.69  0.65  0.65  0.66  0.73  0.81  0.89  0.81  0.75  0.70  0.70  0.71
0.75  0.70  0.68  0.66  0.71  0.78  0.88  0.78  0.69  0.61  0.62  0.64  0.69  0.65  0.65  0.66  0.73  0.81  0.89  0.81  0.75  0.70  0.70  0.71
0.75  0.70  0.68  0.66  0.71  0.78  0.88  0.78  0.69  0.61  0.62  0.64  0.69  0.65  0.65  0.66  0.73  0.81  0.89  0.81  0.75  0.70  0.70  0.71
0.75  0.70  0.68  0.66  0.71  0.78  0.88  0.78  0.69  0.61  0.62  0.64  0.69  0.65  0.65  0.66  0.73  0.81  0.89  0.81  0.75  0.70  0.70  0.71
0.75  0.70  0.68  0.66  0.71  0.78  0.88  0.78  0.69  0.61  0.62  0.64  0.69  0.65  0.65  0.66  0.73  0.81  0.89  0.81  0.75  0.70  0.70  0.71
0.75  0.70  0.68  0.66  0.71  0.78  0.88  0.78  0.69  0.61  0.62  0.64  0.69  0.65  0.65  0.66  0.73  0.81  0.89  0.81  0.75  0.70  0.70  0.71
0.75  0.70  0.68  0.66  0.71  0.78  0.88  0.78  0.69  0.61  0.62  0.64  0.69  0.65  0.65  0.66  0.73  0.81  0.89  0.81  0.75  0.70  0.70  0.71
0.75  0.70  0.68  0.66  0.71  0.78  0.88  0.78  0.69  0.61  0.62  0.64  0.69  0.65  0.65  0.66  0.73  0.81  0.89  0.81  0.75  0.70  0.70  0.71
