$WAVEWATCH III SHADOW OBSTRUCTIONS
36
$ ilon ilat of the cell. lon: 7.0, 29.6
4   1
$ sizes of the cell in km
    77.408       86.918       99.690      117.920      106.832       98.022       88.956       98.022      106.832      117.920       99.690       86.918       77.408       86.918       99.690      117.920      106.832       98.022       88.956       98.022      106.832      117.920       99.690       86.918
$ mean alpha: 0.919623918934
$ mean beta: 0.929652622646
$alpha by ik, ith
1.00  1.00  1.00  1.00  1.00  1.00  1.00  1.00  1.00  1.00  1.00  1.00  1.00  0.66  0.41  0.44  0.59  0.97  1.00  1.00  1.00  1.00  1.00  1.00
1.00  1.00  1.00  1.00  1.00  1.00  1.00  1.00  1.00  1.00  1.00  1.00  1.00  0.66  0.41  0.44  0.59  0.97  1.00  1.00  1.00  1.00  1.00  1.00
1.00  1.00  1.00  1.00  1.00  1.00  1.00  1.00  1.00  1.00  1.00  1.00  1.00  0.66  0.41  0.44  0.59  0.97  1.00  1.00  1.00  1.00  1.00  1.00
1.00  1.00  1.00  1.00  1.00  1.00  1.00  1.00  1.00  1.00  1.00  1.00  1.00  0.66  0.41  0.44  0.59  0.97  1.00  1.00  1.00  1.00  1.00  1.00
1.00  1.00  1.00  1.00  1.00  1.00  1.00  1.00  1.00  1.00  1.00  1.00  1.00  0.66  0.41  0.44  0.59  0.97  1.00  1.00  1.00  1.00  1.00  1.00
1.00  1.00  1.00  1.00  1.00  1.00  1.00  1.00  1.00  1.00  1.00  1.00  1.00  0.66  0.41  0.44  0.59  0.97  1.00  1.00  1.00  1.00  1.00  1.00
1.00  1.00  1.00  1.00  1.00  1.00  1.00  1.00  1.00  1.00  1.00  1.00  1.00  0.66  0.41  0.44  0.59  0.97  1.00  1.00  1.00  1.00  1.00  1.00
1.00  1.00  1.00  1.00  1.00  1.00  1.00  1.00  1.00  1.00  1.00  1.00  1.00  0.66  0.41  0.44  0.59  0.97  1.00  1.00  1.00  1.00  1.00  1.00
1.00  1.00  1.00  1.00  1.00  1.00  1.00  1.00  1.00  1.00  1.00  1.00  1.00  0.66  0.41  0.44  0.59  0.97  1.00  1.00  1.00  1.00  1.00  1.00
1.00  1.00  1.00  1.00  1.00  1.00  1.00  1.00  1.00  1.00  1.00  1.00  1.00  0.66  0.41  0.44  0.59  0.97  1.00  1.00  1.00  1.00  1.00  1.00
1.00  1.00  1.00  1.00  1.00  1.00  1.00  1.00  1.00  1.00  1.00  1.00  1.00  0.66  0.41  0.44  0.59  0.97  1.00  1.00  1.00  1.00  1.00  1.00
1.00  1.00  1.00  1.00  1.00  1.00  1.00  1.00  1.00  1.00  1.00  1.00  1.00  0.66  0.41  0.44  0.59  0.97  1.00  1.00  1.00  1.00  1.00  1.00
1.00  1.00  1.00  1.00  1.00  1.00  1.00  1.00  1.00  1.00  1.00  1.00  1.00  0.66  0.41  0.44  0.59  0.97  1.00  1.00  1.00  1.00  1.00  1.00
1.00  1.00  1.00  1.00  1.00  1.00  1.00  1.00  1.00  1.00  1.00  1.00  1.00  0.66  0.41  0.44  0.59  0.97  1.00  1.00  1.00  1.00  1.00  1.00
1.00  1.00  1.00  1.00  1.00  1.00  1.00  1.00  1.00  1.00  1.00  1.00  1.00  0.66  0.41  0.44  0.59  0.97  1.00  1.00  1.00  1.00  1.00  1.00
1.00  1.00  1.00  1.00  1.00  1.00  1.00  1.00  1.00  1.00  1.00  1.00  1.00  0.66  0.41  0.44  0.59  0.97  1.00  1.00  1.00  1.00  1.00  1.00
1.00  1.00  1.00  1.00  1.00  1.00  1.00  1.00  1.00  1.00  1.00  1.00  1.00  0.66  0.41  0.44  0.59  0.97  1.00  1.00  1.00  1.00  1.00  1.00
1.00  1.00  1.00  1.00  1.00  1.00  1.00  1.00  1.00  1.00  1.00  1.00  1.00  0.66  0.41  0.44  0.59  0.97  1.00  1.00  1.00  1.00  1.00  1.00
1.00  1.00  1.00  1.00  1.00  1.00  1.00  1.00  1.00  1.00  1.00  1.00  1.00  0.66  0.41  0.44  0.59  0.97  1.00  1.00  1.00  1.00  1.00  1.00
1.00  1.00  1.00  1.00  1.00  1.00  1.00  1.00  1.00  1.00  1.00  1.00  1.00  0.66  0.41  0.44  0.59  0.97  1.00  1.00  1.00  1.00  1.00  1.00
1.00  1.00  1.00  1.00  1.00  1.00  1.00  1.00  1.00  1.00  1.00  1.00  1.00  0.66  0.41  0.44  0.59  0.97  1.00  1.00  1.00  1.00  1.00  1.00
1.00  1.00  1.00  1.00  1.00  1.00  1.00  1.00  1.00  1.00  1.00  1.00  1.00  0.66  0.41  0.44  0.59  0.97  1.00  1.00  1.00  1.00  1.00  1.00
1.00  1.00  1.00  1.00  1.00  1.00  1.00  1.00  1.00  1.00  1.00  1.00  1.00  0.66  0.41  0.44  0.59  0.97  1.00  1.00  1.00  1.00  1.00  1.00
1.00  1.00  1.00  1.00  1.00  1.00  1.00  1.00  1.00  1.00  1.00  1.00  1.00  0.66  0.41  0.44  0.59  0.97  1.00  1.00  1.00  1.00  1.00  1.00
1.00  1.00  1.00  1.00  1.00  1.00  1.00  1.00  1.00  1.00  1.00  1.00  1.00  0.66  0.41  0.44  0.59  0.97  1.00  1.00  1.00  1.00  1.00  1.00
$beta by ik, ith
1.00  1.00  1.00  1.00  1.00  1.00  1.00  1.00  1.00  1.00  1.00  1.00  1.00  0.71  0.49  0.52  0.63  0.97  1.00  1.00  1.00  1.00  1.00  1.00
1.00  1.00  1.00  1.00  1.00  1.00  1.00  1.00  1.00  1.00  1.00  1.00  1.00  0.71  0.49  0.52  0.63  0.97  1.00  1.00  1.00  1.00  1.00  1.00
1.00  1.00  1.00  1.00  1.00  1.00  1.00  1.00  1.00  1.00  1.00  1.00  1.00  0.71  0.49  0.52  0.63  0.97  1.00  1.00  1.00  1.00  1.00  1.00
1.00  1.00  1.00  1.00  1.00  1.00  1.00  1.00  1.00  1.00  1.00  1.00  1.00  0.71  0.49  0.52  0.63  0.97  1.00  1.00  1.00  1.00  1.00  1.00
1.00  1.00  1.00  1.00  1.00  1.00  1.00  1.00  1.00  1.00  1.00  1.00  1.00  0.71  0.49  0.52  0.63  0.97  1.00  1.00  1.00  1.00  1.00  1.00
1.00  1.00  1.00  1.00  1.00  1.00  1.00  1.00  1.00  1.00  1.00  1.00  1.00  0.71  0.49  0.52  0.63  0.97  1.00  1.00  1.00  1.00  1.00  1.00
1.00  1.00  1.00  1.00  1.00  1.00  1.00  1.00  1.00  1.00  1.00  1.00  1.00  0.71  0.49  0.52  0.63  0.97  1.00  1.00  1.00  1.00  1.00  1.00
1.00  1.00  1.00  1.00  1.00  1.00  1.00  1.00  1.00  1.00  1.00  1.00  1.00  0.71  0.49  0.52  0.63  0.97  1.00  1.00  1.00  1.00  1.00  1.00
1.00  1.00  1.00  1.00  1.00  1.00  1.00  1.00  1.00  1.00  1.00  1.00  1.00  0.71  0.49  0.52  0.63  0.97  1.00  1.00  1.00  1.00  1.00  1.00
1.00  1.00  1.00  1.00  1.00  1.00  1.00  1.00  1.00  1.00  1.00  1.00  1.00  0.71  0.49  0.52  0.63  0.97  1.00  1.00  1.00  1.00  1.00  1.00
1.00  1.00  1.00  1.00  1.00  1.00  1.00  1.00  1.00  1.00  1.00  1.00  1.00  0.71  0.49  0.52  0.63  0.97  1.00  1.00  1.00  1.00  1.00  1.00
1.00  1.00  1.00  1.00  1.00  1.00  1.00  1.00  1.00  1.00  1.00  1.00  1.00  0.71  0.49  0.52  0.63  0.97  1.00  1.00  1.00  1.00  1.00  1.00
1.00  1.00  1.00  1.00  1.00  1.00  1.00  1.00  1.00  1.00  1.00  1.00  1.00  0.71  0.49  0.52  0.63  0.97  1.00  1.00  1.00  1.00  1.00  1.00
1.00  1.00  1.00  1.00  1.00  1.00  1.00  1.00  1.00  1.00  1.00  1.00  1.00  0.71  0.49  0.52  0.63  0.97  1.00  1.00  1.00  1.00  1.00  1.00
1.00  1.00  1.00  1.00  1.00  1.00  1.00  1.00  1.00  1.00  1.00  1.00  1.00  0.71  0.49  0.52  0.63  0.97  1.00  1.00  1.00  1.00  1.00  1.00
1.00  1.00  1.00  1.00  1.00  1.00  1.00  1.00  1.00  1.00  1.00  1.00  1.00  0.71  0.49  0.52  0.63  0.97  1.00  1.00  1.00  1.00  1.00  1.00
1.00  1.00  1.00  1.00  1.00  1.00  1.00  1.00  1.00  1.00  1.00  1.00  1.00  0.71  0.49  0.52  0.63  0.97  1.00  1.00  1.00  1.00  1.00  1.00
1.00  1.00  1.00  1.00  1.00  1.00  1.00  1.00  1.00  1.00  1.00  1.00  1.00  0.71  0.49  0.52  0.63  0.97  1.00  1.00  1.00  1.00  1.00  1.00
1.00  1.00  1.00  1.00  1.00  1.00  1.00  1.00  1.00  1.00  1.00  1.00  1.00  0.71  0.49  0.52  0.63  0.97  1.00  1.00  1.00  1.00  1.00  1.00
1.00  1.00  1.00  1.00  1.00  1.00  1.00  1.00  1.00  1.00  1.00  1.00  1.00  0.71  0.49  0.52  0.63  0.97  1.00  1.00  1.00  1.00  1.00  1.00
1.00  1.00  1.00  1.00  1.00  1.00  1.00  1.00  1.00  1.00  1.00  1.00  1.00  0.71  0.49  0.52  0.63  0.97  1.00  1.00  1.00  1.00  1.00  1.00
1.00  1.00  1.00  1.00  1.00  1.00  1.00  1.00  1.00  1.00  1.00  1.00  1.00  0.71  0.49  0.52  0.63  0.97  1.00  1.00  1.00  1.00  1.00  1.00
1.00  1.00  1.00  1.00  1.00  1.00  1.00  1.00  1.00  1.00  1.00  1.00  1.00  0.71  0.49  0.52  0.63  0.97  1.00  1.00  1.00  1.00  1.00  1.00
1.00  1.00  1.00  1.00  1.00  1.00  1.00  1.00  1.00  1.00  1.00  1.00  1.00  0.71  0.49  0.52  0.63  0.97  1.00  1.00  1.00  1.00  1.00  1.00
1.00  1.00  1.00  1.00  1.00  1.00  1.00  1.00  1.00  1.00  1.00  1.00  1.00  0.71  0.49  0.52  0.63  0.97  1.00  1.00  1.00  1.00  1.00  1.00
$ ilon ilat of the cell. lon: 7.0, 30.4
4   2
$ sizes of the cell in km
    76.788       86.283       99.137      117.514      106.660       97.982       88.956       97.982      106.660      117.514       99.137       86.283       76.788       86.283       99.137      117.514      106.660       97.982       88.956       97.982      106.660      117.514       99.137       86.283
$ mean alpha: 0.765567151047
$ mean beta: 0.825400384681
$alpha by ik, ith
1.00  1.00  1.00  1.00  1.00  1.00  1.00  1.00  0.95  0.75  0.55  0.32  0.00  0.00  0.00  0.25  0.58  0.97  1.00  1.00  1.00  1.00  1.00  1.00
1.00  1.00  1.00  1.00  1.00  1.00  1.00  1.00  0.95  0.75  0.55  0.32  0.00  0.00  0.00  0.25  0.58  0.97  1.00  1.00  1.00  1.00  1.00  1.00
1.00  1.00  1.00  1.00  1.00  1.00  1.00  1.00  0.95  0.75  0.55  0.32  0.00  0.00  0.00  0.25  0.58  0.97  1.00  1.00  1.00  1.00  1.00  1.00
1.00  1.00  1.00  1.00  1.00  1.00  1.00  1.00  0.95  0.75  0.55  0.32  0.00  0.00  0.00  0.25  0.58  0.97  1.00  1.00  1.00  1.00  1.00  1.00
1.00  1.00  1.00  1.00  1.00  1.00  1.00  1.00  0.95  0.75  0.55  0.32  0.00  0.00  0.00  0.25  0.58  0.97  1.00  1.00  1.00  1.00  1.00  1.00
1.00  1.00  1.00  1.00  1.00  1.00  1.00  1.00  0.95  0.75  0.55  0.32  0.00  0.00  0.00  0.25  0.58  0.97  1.00  1.00  1.00  1.00  1.00  1.00
1.00  1.00  1.00  1.00  1.00  1.00  1.00  1.00  0.95  0.75  0.55  0.32  0.00  0.00  0.00  0.25  0.58  0.97  1.00  1.00  1.00  1.00  1.00  1.00
1.00  1.00  1.00  1.00  1.00  1.00  1.00  1.00  0.95  0.75  0.55  0.32  0.00  0.00  0.00  0.25  0.58  0.97  1.00  1.00  1.00  1.00  1.00  1.00
1.00  1.00  1.00  1.00  1.00  1.00  1.00  1.00  0.95  0.75  0.55  0.32  0.00  0.00  0.00  0.25  0.58  0.97  1.00  1.00  1.00  1.00  1.00  1.00
1.00  1.00  1.00  1.00  1.00  1.00  1.00  1.00  0.95  0.75  0.55  0.32  0.00  0.00  0.00  0.25  0.58  0.97  1.00  1.00  1.00  1.00  1.00  1.00
1.00  1.00  1.00  1.00  1.00  1.00  1.00  1.00  0.95  0.75  0.55  0.32  0.00  0.00  0.00  0.25  0.58  0.97  1.00  1.00  1.00  1.00  1.00  1.00
1.00  1.00  1.00  1.00  1.00  1.00  1.00  1.00  0.95  0.75  0.55  0.32  0.00  0.00  0.00  0.25  0.58  0.97  1.00  1.00  1.00  1.00  1.00  1.00
1.00  1.00  1.00  1.00  1.00  1.00  1.00  1.00  0.95  0.75  0.55  0.32  0.00  0.00  0.00  0.25  0.58  0.97  1.00  1.00  1.00  1.00  1.00  1.00
1.00  1.00  1.00  1.00  1.00  1.00  1.00  1.00  0.95  0.75  0.55  0.32  0.00  0.00  0.00  0.25  0.58  0.97  1.00  1.00  1.00  1.00  1.00  1.00
1.00  1.00  1.00  1.00  1.00  1.00  1.00  1.00  0.95  0.75  0.55  0.32  0.00  0.00  0.00  0.25  0.58  0.97  1.00  1.00  1.00  1.00  1.00  1.00
1.00  1.00  1.00  1.00  1.00  1.00  1.00  1.00  0.95  0.75  0.55  0.32  0.00  0.00  0.00  0.25  0.58  0.97  1.00  1.00  1.00  1.00  1.00  1.00
1.00  1.00  1.00  1.00  1.00  1.00  1.00  1.00  0.95  0.75  0.55  0.32  0.00  0.00  0.00  0.25  0.58  0.97  1.00  1.00  1.00  1.00  1.00  1.00
1.00  1.00  1.00  1.00  1.00  1.00  1.00  1.00  0.95  0.75  0.55  0.32  0.00  0.00  0.00  0.25  0.58  0.97  1.00  1.00  1.00  1.00  1.00  1.00
1.00  1.00  1.00  1.00  1.00  1.00  1.00  1.00  0.95  0.75  0.55  0.32  0.00  0.00  0.00  0.25  0.58  0.97  1.00  1.00  1.00  1.00  1.00  1.00
1.00  1.00  1.00  1.00  1.00  1.00  1.00  1.00  0.95  0.75  0.55  0.32  0.00  0.00  0.00  0.25  0.58  0.97  1.00  1.00  1.00  1.00  1.00  1.00
1.00  1.00  1.00  1.00  1.00  1.00  1.00  1.00  0.95  0.75  0.55  0.32  0.00  0.00  0.00  0.25  0.58  0.97  1.00  1.00  1.00  1.00  1.00  1.00
1.00  1.00  1.00  1.00  1.00  1.00  1.00  1.00  0.95  0.75  0.55  0.32  0.00  0.00  0.00  0.25  0.58  0.97  1.00  1.00  1.00  1.00  1.00  1.00
1.00  1.00  1.00  1.00  1.00  1.00  1.00  1.00  0.95  0.75  0.55  0.32  0.00  0.00  0.00  0.25  0.58  0.97  1.00  1.00  1.00  1.00  1.00  1.00
1.00  1.00  1.00  1.00  1.00  1.00  1.00  1.00  0.95  0.75  0.55  0.32  0.00  0.00  0.00  0.25  0.58  0.97  1.00  1.00  1.00  1.00  1.00  1.00
1.00  1.00  1.00  1.00  1.00  1.00  1.00  1.00  0.95  0.75  0.55  0.32  0.00  0.00  0.00  0.25  0.58  0.97  1.00  1.00  1.00  1.00  1.00  1.00
$beta by ik, ith
1.00  1.00  1.00  1.00  1.00  1.00  1.00  1.00  0.97  0.85  0.70  0.47  0.38  0.20  0.23  0.41  0.63  0.97  1.00  1.00  1.00  1.00  1.00  1.00
1.00  1.00  1.00  1.00  1.00  1.00  1.00  1.00  0.97  0.85  0.70  0.47  0.38  0.20  0.23  0.41  0.63  0.97  1.00  1.00  1.00  1.00  1.00  1.00
1.00  1.00  1.00  1.00  1.00  1.00  1.00  1.00  0.97  0.85  0.70  0.47  0.38  0.20  0.23  0.41  0.63  0.97  1.00  1.00  1.00  1.00  1.00  1.00
1.00  1.00  1.00  1.00  1.00  1.00  1.00  1.00  0.97  0.85  0.70  0.47  0.38  0.20  0.23  0.41  0.63  0.97  1.00  1.00  1.00  1.00  1.00  1.00
1.00  1.00  1.00  1.00  1.00  1.00  1.00  1.00  0.97  0.85  0.70  0.47  0.38  0.20  0.23  0.41  0.63  0.97  1.00  1.00  1.00  1.00  1.00  1.00
1.00  1.00  1.00  1.00  1.00  1.00  1.00  1.00  0.97  0.85  0.70  0.47  0.38  0.20  0.23  0.41  0.63  0.97  1.00  1.00  1.00  1.00  1.00  1.00
1.00  1.00  1.00  1.00  1.00  1.00  1.00  1.00  0.97  0.85  0.70  0.47  0.38  0.20  0.23  0.41  0.63  0.97  1.00  1.00  1.00  1.00  1.00  1.00
1.00  1.00  1.00  1.00  1.00  1.00  1.00  1.00  0.97  0.85  0.70  0.47  0.38  0.20  0.23  0.41  0.63  0.97  1.00  1.00  1.00  1.00  1.00  1.00
1.00  1.00  1.00  1.00  1.00  1.00  1.00  1.00  0.97  0.85  0.70  0.47  0.38  0.20  0.23  0.41  0.63  0.97  1.00  1.00  1.00  1.00  1.00  1.00
1.00  1.00  1.00  1.00  1.00  1.00  1.00  1.00  0.97  0.85  0.70  0.47  0.38  0.20  0.23  0.41  0.63  0.97  1.00  1.00  1.00  1.00  1.00  1.00
1.00  1.00  1.00  1.00  1.00  1.00  1.00  1.00  0.97  0.85  0.70  0.47  0.38  0.20  0.23  0.41  0.63  0.97  1.00  1.00  1.00  1.00  1.00  1.00
1.00  1.00  1.00  1.00  1.00  1.00  1.00  1.00  0.97  0.85  0.70  0.47  0.38  0.20  0.23  0.41  0.63  0.97  1.00  1.00  1.00  1.00  1.00  1.00
1.00  1.00  1.00  1.00  1.00  1.00  1.00  1.00  0.97  0.85  0.70  0.47  0.38  0.20  0.23  0.41  0.63  0.97  1.00  1.00  1.00  1.00  1.00  1.00
1.00  1.00  1.00  1.00  1.00  1.00  1.00  1.00  0.97  0.85  0.70  0.47  0.38  0.20  0.23  0.41  0.63  0.97  1.00  1.00  1.00  1.00  1.00  1.00
1.00  1.00  1.00  1.00  1.00  1.00  1.00  1.00  0.97  0.85  0.70  0.47  0.38  0.20  0.23  0.41  0.63  0.97  1.00  1.00  1.00  1.00  1.00  1.00
1.00  1.00  1.00  1.00  1.00  1.00  1.00  1.00  0.97  0.85  0.70  0.47  0.38  0.20  0.23  0.41  0.63  0.97  1.00  1.00  1.00  1.00  1.00  1.00
1.00  1.00  1.00  1.00  1.00  1.00  1.00  1.00  0.97  0.85  0.70  0.47  0.38  0.20  0.23  0.41  0.63  0.97  1.00  1.00  1.00  1.00  1.00  1.00
1.00  1.00  1.00  1.00  1.00  1.00  1.00  1.00  0.97  0.85  0.70  0.47  0.38  0.20  0.23  0.41  0.63  0.97  1.00  1.00  1.00  1.00  1.00  1.00
1.00  1.00  1.00  1.00  1.00  1.00  1.00  1.00  0.97  0.85  0.70  0.47  0.38  0.20  0.23  0.41  0.63  0.97  1.00  1.00  1.00  1.00  1.00  1.00
1.00  1.00  1.00  1.00  1.00  1.00  1.00  1.00  0.97  0.85  0.70  0.47  0.38  0.20  0.23  0.41  0.63  0.97  1.00  1.00  1.00  1.00  1.00  1.00
1.00  1.00  1.00  1.00  1.00  1.00  1.00  1.00  0.97  0.85  0.70  0.47  0.38  0.20  0.23  0.41  0.63  0.97  1.00  1.00  1.00  1.00  1.00  1.00
1.00  1.00  1.00  1.00  1.00  1.00  1.00  1.00  0.97  0.85  0.70  0.47  0.38  0.20  0.23  0.41  0.63  0.97  1.00  1.00  1.00  1.00  1.00  1.00
1.00  1.00  1.00  1.00  1.00  1.00  1.00  1.00  0.97  0.85  0.70  0.47  0.38  0.20  0.23  0.41  0.63  0.97  1.00  1.00  1.00  1.00  1.00  1.00
1.00  1.00  1.00  1.00  1.00  1.00  1.00  1.00  0.97  0.85  0.70  0.47  0.38  0.20  0.23  0.41  0.63  0.97  1.00  1.00  1.00  1.00  1.00  1.00
1.00  1.00  1.00  1.00  1.00  1.00  1.00  1.00  0.97  0.85  0.70  0.47  0.38  0.20  0.23  0.41  0.63  0.97  1.00  1.00  1.00  1.00  1.00  1.00
$ ilon ilat of the cell. lon: 7.0, 31.2
4   3
$ sizes of the cell in km
    76.154       85.633       98.571      117.101      106.485       97.941       88.956       97.941      106.485      117.101       98.571       85.633       76.154       85.633       98.571      117.101      106.485       97.941       88.956       97.941      106.485      117.101       98.571       85.633
$ mean alpha: 0.692218693919
$ mean beta: 0.76058024997
$alpha by ik, ith
1.00  1.00  1.00  1.00  1.00  1.00  1.00  0.97  0.58  0.25  0.00  0.00  0.00  0.00  0.00  0.25  0.58  0.97  1.00  1.00  1.00  1.00  1.00  1.00
1.00  1.00  1.00  1.00  1.00  1.00  1.00  0.97  0.58  0.25  0.00  0.00  0.00  0.00  0.00  0.25  0.58  0.97  1.00  1.00  1.00  1.00  1.00  1.00
1.00  1.00  1.00  1.00  1.00  1.00  1.00  0.97  0.58  0.25  0.00  0.00  0.00  0.00  0.00  0.25  0.58  0.97  1.00  1.00  1.00  1.00  1.00  1.00
1.00  1.00  1.00  1.00  1.00  1.00  1.00  0.97  0.58  0.25  0.00  0.00  0.00  0.00  0.00  0.25  0.58  0.97  1.00  1.00  1.00  1.00  1.00  1.00
1.00  1.00  1.00  1.00  1.00  1.00  1.00  0.97  0.58  0.25  0.00  0.00  0.00  0.00  0.00  0.25  0.58  0.97  1.00  1.00  1.00  1.00  1.00  1.00
1.00  1.00  1.00  1.00  1.00  1.00  1.00  0.97  0.58  0.25  0.00  0.00  0.00  0.00  0.00  0.25  0.58  0.97  1.00  1.00  1.00  1.00  1.00  1.00
1.00  1.00  1.00  1.00  1.00  1.00  1.00  0.97  0.58  0.25  0.00  0.00  0.00  0.00  0.00  0.25  0.58  0.97  1.00  1.00  1.00  1.00  1.00  1.00
1.00  1.00  1.00  1.00  1.00  1.00  1.00  0.97  0.58  0.25  0.00  0.00  0.00  0.00  0.00  0.25  0.58  0.97  1.00  1.00  1.00  1.00  1.00  1.00
1.00  1.00  1.00  1.00  1.00  1.00  1.00  0.97  0.58  0.25  0.00  0.00  0.00  0.00  0.00  0.25  0.58  0.97  1.00  1.00  1.00  1.00  1.00  1.00
1.00  1.00  1.00  1.00  1.00  1.00  1.00  0.97  0.58  0.25  0.00  0.00  0.00  0.00  0.00  0.25  0.58  0.97  1.00  1.00  1.00  1.00  1.00  1.00
1.00  1.00  1.00  1.00  1.00  1.00  1.00  0.97  0.58  0.25  0.00  0.00  0.00  0.00  0.00  0.25  0.58  0.97  1.00  1.00  1.00  1.00  1.00  1.00
1.00  1.00  1.00  1.00  1.00  1.00  1.00  0.97  0.58  0.25  0.00  0.00  0.00  0.00  0.00  0.25  0.58  0.97  1.00  1.00  1.00  1.00  1.00  1.00
1.00  1.00  1.00  1.00  1.00  1.00  1.00  0.97  0.58  0.25  0.00  0.00  0.00  0.00  0.00  0.25  0.58  0.97  1.00  1.00  1.00  1.00  1.00  1.00
1.00  1.00  1.00  1.00  1.00  1.00  1.00  0.97  0.58  0.25  0.00  0.00  0.00  0.00  0.00  0.25  0.58  0.97  1.00  1.00  1.00  1.00  1.00  1.00
1.00  1.00  1.00  1.00  1.00  1.00  1.00  0.97  0.58  0.25  0.00  0.00  0.00  0.00  0.00  0.25  0.58  0.97  1.00  1.00  1.00  1.00  1.00  1.00
1.00  1.00  1.00  1.00  1.00  1.00  1.00  0.97  0.58  0.25  0.00  0.00  0.00  0.00  0.00  0.25  0.58  0.97  1.00  1.00  1.00  1.00  1.00  1.00
1.00  1.00  1.00  1.00  1.00  1.00  1.00  0.97  0.58  0.25  0.00  0.00  0.00  0.00  0.00  0.25  0.58  0.97  1.00  1.00  1.00  1.00  1.00  1.00
1.00  1.00  1.00  1.00  1.00  1.00  1.00  0.97  0.58  0.25  0.00  0.00  0.00  0.00  0.00  0.25  0.58  0.97  1.00  1.00  1.00  1.00  1.00  1.00
1.00  1.00  1.00  1.00  1.00  1.00  1.00  0.97  0.58  0.25  0.00  0.00  0.00  0.00  0.00  0.25  0.58  0.97  1.00  1.00  1.00  1.00  1.00  1.00
1.00  1.00  1.00  1.00  1.00  1.00  1.00  0.97  0.58  0.25  0.00  0.00  0.00  0.00  0.00  0.25  0.58  0.97  1.00  1.00  1.00  1.00  1.00  1.00
1.00  1.00  1.00  1.00  1.00  1.00  1.00  0.97  0.58  0.25  0.00  0.00  0.00  0.00  0.00  0.25  0.58  0.97  1.00  1.00  1.00  1.00  1.00  1.00
1.00  1.00  1.00  1.00  1.00  1.00  1.00  0.97  0.58  0.25  0.00  0.00  0.00  0.00  0.00  0.25  0.58  0.97  1.00  1.00  1.00  1.00  1.00  1.00
1.00  1.00  1.00  1.00  1.00  1.00  1.00  0.97  0.58  0.25  0.00  0.00  0.00  0.00  0.00  0.25  0.58  0.97  1.00  1.00  1.00  1.00  1.00  1.00
1.00  1.00  1.00  1.00  1.00  1.00  1.00  0.97  0.58  0.25  0.00  0.00  0.00  0.00  0.00  0.25  0.58  0.97  1.00  1.00  1.00  1.00  1.00  1.00
1.00  1.00  1.00  1.00  1.00  1.00  1.00  0.97  0.58  0.25  0.00  0.00  0.00  0.00  0.00  0.25  0.58  0.97  1.00  1.00  1.00  1.00  1.00  1.00
$beta by ik, ith
1.00  1.00  1.00  1.00  1.00  1.00  1.00  0.97  0.63  0.41  0.23  0.20  0.38  0.20  0.23  0.41  0.63  0.97  1.00  1.00  1.00  1.00  1.00  1.00
1.00  1.00  1.00  1.00  1.00  1.00  1.00  0.97  0.63  0.41  0.23  0.20  0.38  0.20  0.23  0.41  0.63  0.97  1.00  1.00  1.00  1.00  1.00  1.00
1.00  1.00  1.00  1.00  1.00  1.00  1.00  0.97  0.63  0.41  0.23  0.20  0.38  0.20  0.23  0.41  0.63  0.97  1.00  1.00  1.00  1.00  1.00  1.00
1.00  1.00  1.00  1.00  1.00  1.00  1.00  0.97  0.63  0.41  0.23  0.20  0.38  0.20  0.23  0.41  0.63  0.97  1.00  1.00  1.00  1.00  1.00  1.00
1.00  1.00  1.00  1.00  1.00  1.00  1.00  0.97  0.63  0.41  0.23  0.20  0.38  0.20  0.23  0.41  0.63  0.97  1.00  1.00  1.00  1.00  1.00  1.00
1.00  1.00  1.00  1.00  1.00  1.00  1.00  0.97  0.63  0.41  0.23  0.20  0.38  0.20  0.23  0.41  0.63  0.97  1.00  1.00  1.00  1.00  1.00  1.00
1.00  1.00  1.00  1.00  1.00  1.00  1.00  0.97  0.63  0.41  0.23  0.20  0.38  0.20  0.23  0.41  0.63  0.97  1.00  1.00  1.00  1.00  1.00  1.00
1.00  1.00  1.00  1.00  1.00  1.00  1.00  0.97  0.63  0.41  0.23  0.20  0.38  0.20  0.23  0.41  0.63  0.97  1.00  1.00  1.00  1.00  1.00  1.00
1.00  1.00  1.00  1.00  1.00  1.00  1.00  0.97  0.63  0.41  0.23  0.20  0.38  0.20  0.23  0.41  0.63  0.97  1.00  1.00  1.00  1.00  1.00  1.00
1.00  1.00  1.00  1.00  1.00  1.00  1.00  0.97  0.63  0.41  0.23  0.20  0.38  0.20  0.23  0.41  0.63  0.97  1.00  1.00  1.00  1.00  1.00  1.00
1.00  1.00  1.00  1.00  1.00  1.00  1.00  0.97  0.63  0.41  0.23  0.20  0.38  0.20  0.23  0.41  0.63  0.97  1.00  1.00  1.00  1.00  1.00  1.00
1.00  1.00  1.00  1.00  1.00  1.00  1.00  0.97  0.63  0.41  0.23  0.20  0.38  0.20  0.23  0.41  0.63  0.97  1.00  1.00  1.00  1.00  1.00  1.00
1.00  1.00  1.00  1.00  1.00  1.00  1.00  0.97  0.63  0.41  0.23  0.20  0.38  0.20  0.23  0.41  0.63  0.97  1.00  1.00  1.00  1.00  1.00  1.00
1.00  1.00  1.00  1.00  1.00  1.00  1.00  0.97  0.63  0.41  0.23  0.20  0.38  0.20  0.23  0.41  0.63  0.97  1.00  1.00  1.00  1.00  1.00  1.00
1.00  1.00  1.00  1.00  1.00  1.00  1.00  0.97  0.63  0.41  0.23  0.20  0.38  0.20  0.23  0.41  0.63  0.97  1.00  1.00  1.00  1.00  1.00  1.00
1.00  1.00  1.00  1.00  1.00  1.00  1.00  0.97  0.63  0.41  0.23  0.20  0.38  0.20  0.23  0.41  0.63  0.97  1.00  1.00  1.00  1.00  1.00  1.00
1.00  1.00  1.00  1.00  1.00  1.00  1.00  0.97  0.63  0.41  0.23  0.20  0.38  0.20  0.23  0.41  0.63  0.97  1.00  1.00  1.00  1.00  1.00  1.00
1.00  1.00  1.00  1.00  1.00  1.00  1.00  0.97  0.63  0.41  0.23  0.20  0.38  0.20  0.23  0.41  0.63  0.97  1.00  1.00  1.00  1.00  1.00  1.00
1.00  1.00  1.00  1.00  1.00  1.00  1.00  0.97  0.63  0.41  0.23  0.20  0.38  0.20  0.23  0.41  0.63  0.97  1.00  1.00  1.00  1.00  1.00  1.00
1.00  1.00  1.00  1.00  1.00  1.00  1.00  0.97  0.63  0.41  0.23  0.20  0.38  0.20  0.23  0.41  0.63  0.97  1.00  1.00  1.00  1.00  1.00  1.00
1.00  1.00  1.00  1.00  1.00  1.00  1.00  0.97  0.63  0.41  0.23  0.20  0.38  0.20  0.23  0.41  0.63  0.97  1.00  1.00  1.00  1.00  1.00  1.00
1.00  1.00  1.00  1.00  1.00  1.00  1.00  0.97  0.63  0.41  0.23  0.20  0.38  0.20  0.23  0.41  0.63  0.97  1.00  1.00  1.00  1.00  1.00  1.00
1.00  1.00  1.00  1.00  1.00  1.00  1.00  0.97  0.63  0.41  0.23  0.20  0.38  0.20  0.23  0.41  0.63  0.97  1.00  1.00  1.00  1.00  1.00  1.00
1.00  1.00  1.00  1.00  1.00  1.00  1.00  0.97  0.63  0.41  0.23  0.20  0.38  0.20  0.23  0.41  0.63  0.97  1.00  1.00  1.00  1.00  1.00  1.00
1.00  1.00  1.00  1.00  1.00  1.00  1.00  0.97  0.63  0.41  0.23  0.20  0.38  0.20  0.23  0.41  0.63  0.97  1.00  1.00  1.00  1.00  1.00  1.00
$ ilon ilat of the cell. lon: 7.0, 32.0
4   4
$ sizes of the cell in km
    75.505       84.968       97.995      116.680      106.308       97.899       88.956       97.899      106.308      116.680       97.995       84.968       75.505       84.968       97.995      116.680      106.308       97.899       88.956       97.899      106.308      116.680       97.995       84.968
$ mean alpha: 0.692218693919
$ mean beta: 0.76058024997
$alpha by ik, ith
1.00  1.00  1.00  1.00  1.00  1.00  1.00  0.97  0.58  0.25  0.00  0.00  0.00  0.00  0.00  0.25  0.58  0.97  1.00  1.00  1.00  1.00  1.00  1.00
1.00  1.00  1.00  1.00  1.00  1.00  1.00  0.97  0.58  0.25  0.00  0.00  0.00  0.00  0.00  0.25  0.58  0.97  1.00  1.00  1.00  1.00  1.00  1.00
1.00  1.00  1.00  1.00  1.00  1.00  1.00  0.97  0.58  0.25  0.00  0.00  0.00  0.00  0.00  0.25  0.58  0.97  1.00  1.00  1.00  1.00  1.00  1.00
1.00  1.00  1.00  1.00  1.00  1.00  1.00  0.97  0.58  0.25  0.00  0.00  0.00  0.00  0.00  0.25  0.58  0.97  1.00  1.00  1.00  1.00  1.00  1.00
1.00  1.00  1.00  1.00  1.00  1.00  1.00  0.97  0.58  0.25  0.00  0.00  0.00  0.00  0.00  0.25  0.58  0.97  1.00  1.00  1.00  1.00  1.00  1.00
1.00  1.00  1.00  1.00  1.00  1.00  1.00  0.97  0.58  0.25  0.00  0.00  0.00  0.00  0.00  0.25  0.58  0.97  1.00  1.00  1.00  1.00  1.00  1.00
1.00  1.00  1.00  1.00  1.00  1.00  1.00  0.97  0.58  0.25  0.00  0.00  0.00  0.00  0.00  0.25  0.58  0.97  1.00  1.00  1.00  1.00  1.00  1.00
1.00  1.00  1.00  1.00  1.00  1.00  1.00  0.97  0.58  0.25  0.00  0.00  0.00  0.00  0.00  0.25  0.58  0.97  1.00  1.00  1.00  1.00  1.00  1.00
1.00  1.00  1.00  1.00  1.00  1.00  1.00  0.97  0.58  0.25  0.00  0.00  0.00  0.00  0.00  0.25  0.58  0.97  1.00  1.00  1.00  1.00  1.00  1.00
1.00  1.00  1.00  1.00  1.00  1.00  1.00  0.97  0.58  0.25  0.00  0.00  0.00  0.00  0.00  0.25  0.58  0.97  1.00  1.00  1.00  1.00  1.00  1.00
1.00  1.00  1.00  1.00  1.00  1.00  1.00  0.97  0.58  0.25  0.00  0.00  0.00  0.00  0.00  0.25  0.58  0.97  1.00  1.00  1.00  1.00  1.00  1.00
1.00  1.00  1.00  1.00  1.00  1.00  1.00  0.97  0.58  0.25  0.00  0.00  0.00  0.00  0.00  0.25  0.58  0.97  1.00  1.00  1.00  1.00  1.00  1.00
1.00  1.00  1.00  1.00  1.00  1.00  1.00  0.97  0.58  0.25  0.00  0.00  0.00  0.00  0.00  0.25  0.58  0.97  1.00  1.00  1.00  1.00  1.00  1.00
1.00  1.00  1.00  1.00  1.00  1.00  1.00  0.97  0.58  0.25  0.00  0.00  0.00  0.00  0.00  0.25  0.58  0.97  1.00  1.00  1.00  1.00  1.00  1.00
1.00  1.00  1.00  1.00  1.00  1.00  1.00  0.97  0.58  0.25  0.00  0.00  0.00  0.00  0.00  0.25  0.58  0.97  1.00  1.00  1.00  1.00  1.00  1.00
1.00  1.00  1.00  1.00  1.00  1.00  1.00  0.97  0.58  0.25  0.00  0.00  0.00  0.00  0.00  0.25  0.58  0.97  1.00  1.00  1.00  1.00  1.00  1.00
1.00  1.00  1.00  1.00  1.00  1.00  1.00  0.97  0.58  0.25  0.00  0.00  0.00  0.00  0.00  0.25  0.58  0.97  1.00  1.00  1.00  1.00  1.00  1.00
1.00  1.00  1.00  1.00  1.00  1.00  1.00  0.97  0.58  0.25  0.00  0.00  0.00  0.00  0.00  0.25  0.58  0.97  1.00  1.00  1.00  1.00  1.00  1.00
1.00  1.00  1.00  1.00  1.00  1.00  1.00  0.97  0.58  0.25  0.00  0.00  0.00  0.00  0.00  0.25  0.58  0.97  1.00  1.00  1.00  1.00  1.00  1.00
1.00  1.00  1.00  1.00  1.00  1.00  1.00  0.97  0.58  0.25  0.00  0.00  0.00  0.00  0.00  0.25  0.58  0.97  1.00  1.00  1.00  1.00  1.00  1.00
1.00  1.00  1.00  1.00  1.00  1.00  1.00  0.97  0.58  0.25  0.00  0.00  0.00  0.00  0.00  0.25  0.58  0.97  1.00  1.00  1.00  1.00  1.00  1.00
1.00  1.00  1.00  1.00  1.00  1.00  1.00  0.97  0.58  0.25  0.00  0.00  0.00  0.00  0.00  0.25  0.58  0.97  1.00  1.00  1.00  1.00  1.00  1.00
1.00  1.00  1.00  1.00  1.00  1.00  1.00  0.97  0.58  0.25  0.00  0.00  0.00  0.00  0.00  0.25  0.58  0.97  1.00  1.00  1.00  1.00  1.00  1.00
1.00  1.00  1.00  1.00  1.00  1.00  1.00  0.97  0.58  0.25  0.00  0.00  0.00  0.00  0.00  0.25  0.58  0.97  1.00  1.00  1.00  1.00  1.00  1.00
1.00  1.00  1.00  1.00  1.00  1.00  1.00  0.97  0.58  0.25  0.00  0.00  0.00  0.00  0.00  0.25  0.58  0.97  1.00  1.00  1.00  1.00  1.00  1.00
$beta by ik, ith
1.00  1.00  1.00  1.00  1.00  1.00  1.00  0.97  0.63  0.41  0.23  0.20  0.38  0.20  0.23  0.41  0.63  0.97  1.00  1.00  1.00  1.00  1.00  1.00
1.00  1.00  1.00  1.00  1.00  1.00  1.00  0.97  0.63  0.41  0.23  0.20  0.38  0.20  0.23  0.41  0.63  0.97  1.00  1.00  1.00  1.00  1.00  1.00
1.00  1.00  1.00  1.00  1.00  1.00  1.00  0.97  0.63  0.41  0.23  0.20  0.38  0.20  0.23  0.41  0.63  0.97  1.00  1.00  1.00  1.00  1.00  1.00
1.00  1.00  1.00  1.00  1.00  1.00  1.00  0.97  0.63  0.41  0.23  0.20  0.38  0.20  0.23  0.41  0.63  0.97  1.00  1.00  1.00  1.00  1.00  1.00
1.00  1.00  1.00  1.00  1.00  1.00  1.00  0.97  0.63  0.41  0.23  0.20  0.38  0.20  0.23  0.41  0.63  0.97  1.00  1.00  1.00  1.00  1.00  1.00
1.00  1.00  1.00  1.00  1.00  1.00  1.00  0.97  0.63  0.41  0.23  0.20  0.38  0.20  0.23  0.41  0.63  0.97  1.00  1.00  1.00  1.00  1.00  1.00
1.00  1.00  1.00  1.00  1.00  1.00  1.00  0.97  0.63  0.41  0.23  0.20  0.38  0.20  0.23  0.41  0.63  0.97  1.00  1.00  1.00  1.00  1.00  1.00
1.00  1.00  1.00  1.00  1.00  1.00  1.00  0.97  0.63  0.41  0.23  0.20  0.38  0.20  0.23  0.41  0.63  0.97  1.00  1.00  1.00  1.00  1.00  1.00
1.00  1.00  1.00  1.00  1.00  1.00  1.00  0.97  0.63  0.41  0.23  0.20  0.38  0.20  0.23  0.41  0.63  0.97  1.00  1.00  1.00  1.00  1.00  1.00
1.00  1.00  1.00  1.00  1.00  1.00  1.00  0.97  0.63  0.41  0.23  0.20  0.38  0.20  0.23  0.41  0.63  0.97  1.00  1.00  1.00  1.00  1.00  1.00
1.00  1.00  1.00  1.00  1.00  1.00  1.00  0.97  0.63  0.41  0.23  0.20  0.38  0.20  0.23  0.41  0.63  0.97  1.00  1.00  1.00  1.00  1.00  1.00
1.00  1.00  1.00  1.00  1.00  1.00  1.00  0.97  0.63  0.41  0.23  0.20  0.38  0.20  0.23  0.41  0.63  0.97  1.00  1.00  1.00  1.00  1.00  1.00
1.00  1.00  1.00  1.00  1.00  1.00  1.00  0.97  0.63  0.41  0.23  0.20  0.38  0.20  0.23  0.41  0.63  0.97  1.00  1.00  1.00  1.00  1.00  1.00
1.00  1.00  1.00  1.00  1.00  1.00  1.00  0.97  0.63  0.41  0.23  0.20  0.38  0.20  0.23  0.41  0.63  0.97  1.00  1.00  1.00  1.00  1.00  1.00
1.00  1.00  1.00  1.00  1.00  1.00  1.00  0.97  0.63  0.41  0.23  0.20  0.38  0.20  0.23  0.41  0.63  0.97  1.00  1.00  1.00  1.00  1.00  1.00
1.00  1.00  1.00  1.00  1.00  1.00  1.00  0.97  0.63  0.41  0.23  0.20  0.38  0.20  0.23  0.41  0.63  0.97  1.00  1.00  1.00  1.00  1.00  1.00
1.00  1.00  1.00  1.00  1.00  1.00  1.00  0.97  0.63  0.41  0.23  0.20  0.38  0.20  0.23  0.41  0.63  0.97  1.00  1.00  1.00  1.00  1.00  1.00
1.00  1.00  1.00  1.00  1.00  1.00  1.00  0.97  0.63  0.41  0.23  0.20  0.38  0.20  0.23  0.41  0.63  0.97  1.00  1.00  1.00  1.00  1.00  1.00
1.00  1.00  1.00  1.00  1.00  1.00  1.00  0.97  0.63  0.41  0.23  0.20  0.38  0.20  0.23  0.41  0.63  0.97  1.00  1.00  1.00  1.00  1.00  1.00
1.00  1.00  1.00  1.00  1.00  1.00  1.00  0.97  0.63  0.41  0.23  0.20  0.38  0.20  0.23  0.41  0.63  0.97  1.00  1.00  1.00  1.00  1.00  1.00
1.00  1.00  1.00  1.00  1.00  1.00  1.00  0.97  0.63  0.41  0.23  0.20  0.38  0.20  0.23  0.41  0.63  0.97  1.00  1.00  1.00  1.00  1.00  1.00
1.00  1.00  1.00  1.00  1.00  1.00  1.00  0.97  0.63  0.41  0.23  0.20  0.38  0.20  0.23  0.41  0.63  0.97  1.00  1.00  1.00  1.00  1.00  1.00
1.00  1.00  1.00  1.00  1.00  1.00  1.00  0.97  0.63  0.41  0.23  0.20  0.38  0.20  0.23  0.41  0.63  0.97  1.00  1.00  1.00  1.00  1.00  1.00
1.00  1.00  1.00  1.00  1.00  1.00  1.00  0.97  0.63  0.41  0.23  0.20  0.38  0.20  0.23  0.41  0.63  0.97  1.00  1.00  1.00  1.00  1.00  1.00
1.00  1.00  1.00  1.00  1.00  1.00  1.00  0.97  0.63  0.41  0.23  0.20  0.38  0.20  0.23  0.41  0.63  0.97  1.00  1.00  1.00  1.00  1.00  1.00
$ ilon ilat of the cell. lon: 7.0, 32.8
4   5
$ sizes of the cell in km
    74.841       84.289       97.406      116.251      106.127       97.857       88.956       97.857      106.127      116.251       97.406       84.289       74.841       84.289       97.406      116.251      106.127       97.857       88.956       97.857      106.127      116.251       97.406       84.289
$ mean alpha: 0.692218693919
$ mean beta: 0.76058024997
$alpha by ik, ith
1.00  1.00  1.00  1.00  1.00  1.00  1.00  0.97  0.58  0.25  0.00  0.00  0.00  0.00  0.00  0.25  0.58  0.97  1.00  1.00  1.00  1.00  1.00  1.00
1.00  1.00  1.00  1.00  1.00  1.00  1.00  0.97  0.58  0.25  0.00  0.00  0.00  0.00  0.00  0.25  0.58  0.97  1.00  1.00  1.00  1.00  1.00  1.00
1.00  1.00  1.00  1.00  1.00  1.00  1.00  0.97  0.58  0.25  0.00  0.00  0.00  0.00  0.00  0.25  0.58  0.97  1.00  1.00  1.00  1.00  1.00  1.00
1.00  1.00  1.00  1.00  1.00  1.00  1.00  0.97  0.58  0.25  0.00  0.00  0.00  0.00  0.00  0.25  0.58  0.97  1.00  1.00  1.00  1.00  1.00  1.00
1.00  1.00  1.00  1.00  1.00  1.00  1.00  0.97  0.58  0.25  0.00  0.00  0.00  0.00  0.00  0.25  0.58  0.97  1.00  1.00  1.00  1.00  1.00  1.00
1.00  1.00  1.00  1.00  1.00  1.00  1.00  0.97  0.58  0.25  0.00  0.00  0.00  0.00  0.00  0.25  0.58  0.97  1.00  1.00  1.00  1.00  1.00  1.00
1.00  1.00  1.00  1.00  1.00  1.00  1.00  0.97  0.58  0.25  0.00  0.00  0.00  0.00  0.00  0.25  0.58  0.97  1.00  1.00  1.00  1.00  1.00  1.00
1.00  1.00  1.00  1.00  1.00  1.00  1.00  0.97  0.58  0.25  0.00  0.00  0.00  0.00  0.00  0.25  0.58  0.97  1.00  1.00  1.00  1.00  1.00  1.00
1.00  1.00  1.00  1.00  1.00  1.00  1.00  0.97  0.58  0.25  0.00  0.00  0.00  0.00  0.00  0.25  0.58  0.97  1.00  1.00  1.00  1.00  1.00  1.00
1.00  1.00  1.00  1.00  1.00  1.00  1.00  0.97  0.58  0.25  0.00  0.00  0.00  0.00  0.00  0.25  0.58  0.97  1.00  1.00  1.00  1.00  1.00  1.00
1.00  1.00  1.00  1.00  1.00  1.00  1.00  0.97  0.58  0.25  0.00  0.00  0.00  0.00  0.00  0.25  0.58  0.97  1.00  1.00  1.00  1.00  1.00  1.00
1.00  1.00  1.00  1.00  1.00  1.00  1.00  0.97  0.58  0.25  0.00  0.00  0.00  0.00  0.00  0.25  0.58  0.97  1.00  1.00  1.00  1.00  1.00  1.00
1.00  1.00  1.00  1.00  1.00  1.00  1.00  0.97  0.58  0.25  0.00  0.00  0.00  0.00  0.00  0.25  0.58  0.97  1.00  1.00  1.00  1.00  1.00  1.00
1.00  1.00  1.00  1.00  1.00  1.00  1.00  0.97  0.58  0.25  0.00  0.00  0.00  0.00  0.00  0.25  0.58  0.97  1.00  1.00  1.00  1.00  1.00  1.00
1.00  1.00  1.00  1.00  1.00  1.00  1.00  0.97  0.58  0.25  0.00  0.00  0.00  0.00  0.00  0.25  0.58  0.97  1.00  1.00  1.00  1.00  1.00  1.00
1.00  1.00  1.00  1.00  1.00  1.00  1.00  0.97  0.58  0.25  0.00  0.00  0.00  0.00  0.00  0.25  0.58  0.97  1.00  1.00  1.00  1.00  1.00  1.00
1.00  1.00  1.00  1.00  1.00  1.00  1.00  0.97  0.58  0.25  0.00  0.00  0.00  0.00  0.00  0.25  0.58  0.97  1.00  1.00  1.00  1.00  1.00  1.00
1.00  1.00  1.00  1.00  1.00  1.00  1.00  0.97  0.58  0.25  0.00  0.00  0.00  0.00  0.00  0.25  0.58  0.97  1.00  1.00  1.00  1.00  1.00  1.00
1.00  1.00  1.00  1.00  1.00  1.00  1.00  0.97  0.58  0.25  0.00  0.00  0.00  0.00  0.00  0.25  0.58  0.97  1.00  1.00  1.00  1.00  1.00  1.00
1.00  1.00  1.00  1.00  1.00  1.00  1.00  0.97  0.58  0.25  0.00  0.00  0.00  0.00  0.00  0.25  0.58  0.97  1.00  1.00  1.00  1.00  1.00  1.00
1.00  1.00  1.00  1.00  1.00  1.00  1.00  0.97  0.58  0.25  0.00  0.00  0.00  0.00  0.00  0.25  0.58  0.97  1.00  1.00  1.00  1.00  1.00  1.00
1.00  1.00  1.00  1.00  1.00  1.00  1.00  0.97  0.58  0.25  0.00  0.00  0.00  0.00  0.00  0.25  0.58  0.97  1.00  1.00  1.00  1.00  1.00  1.00
1.00  1.00  1.00  1.00  1.00  1.00  1.00  0.97  0.58  0.25  0.00  0.00  0.00  0.00  0.00  0.25  0.58  0.97  1.00  1.00  1.00  1.00  1.00  1.00
1.00  1.00  1.00  1.00  1.00  1.00  1.00  0.97  0.58  0.25  0.00  0.00  0.00  0.00  0.00  0.25  0.58  0.97  1.00  1.00  1.00  1.00  1.00  1.00
1.00  1.00  1.00  1.00  1.00  1.00  1.00  0.97  0.58  0.25  0.00  0.00  0.00  0.00  0.00  0.25  0.58  0.97  1.00  1.00  1.00  1.00  1.00  1.00
$beta by ik, ith
1.00  1.00  1.00  1.00  1.00  1.00  1.00  0.97  0.63  0.41  0.23  0.20  0.38  0.20  0.23  0.41  0.63  0.97  1.00  1.00  1.00  1.00  1.00  1.00
1.00  1.00  1.00  1.00  1.00  1.00  1.00  0.97  0.63  0.41  0.23  0.20  0.38  0.20  0.23  0.41  0.63  0.97  1.00  1.00  1.00  1.00  1.00  1.00
1.00  1.00  1.00  1.00  1.00  1.00  1.00  0.97  0.63  0.41  0.23  0.20  0.38  0.20  0.23  0.41  0.63  0.97  1.00  1.00  1.00  1.00  1.00  1.00
1.00  1.00  1.00  1.00  1.00  1.00  1.00  0.97  0.63  0.41  0.23  0.20  0.38  0.20  0.23  0.41  0.63  0.97  1.00  1.00  1.00  1.00  1.00  1.00
1.00  1.00  1.00  1.00  1.00  1.00  1.00  0.97  0.63  0.41  0.23  0.20  0.38  0.20  0.23  0.41  0.63  0.97  1.00  1.00  1.00  1.00  1.00  1.00
1.00  1.00  1.00  1.00  1.00  1.00  1.00  0.97  0.63  0.41  0.23  0.20  0.38  0.20  0.23  0.41  0.63  0.97  1.00  1.00  1.00  1.00  1.00  1.00
1.00  1.00  1.00  1.00  1.00  1.00  1.00  0.97  0.63  0.41  0.23  0.20  0.38  0.20  0.23  0.41  0.63  0.97  1.00  1.00  1.00  1.00  1.00  1.00
1.00  1.00  1.00  1.00  1.00  1.00  1.00  0.97  0.63  0.41  0.23  0.20  0.38  0.20  0.23  0.41  0.63  0.97  1.00  1.00  1.00  1.00  1.00  1.00
1.00  1.00  1.00  1.00  1.00  1.00  1.00  0.97  0.63  0.41  0.23  0.20  0.38  0.20  0.23  0.41  0.63  0.97  1.00  1.00  1.00  1.00  1.00  1.00
1.00  1.00  1.00  1.00  1.00  1.00  1.00  0.97  0.63  0.41  0.23  0.20  0.38  0.20  0.23  0.41  0.63  0.97  1.00  1.00  1.00  1.00  1.00  1.00
1.00  1.00  1.00  1.00  1.00  1.00  1.00  0.97  0.63  0.41  0.23  0.20  0.38  0.20  0.23  0.41  0.63  0.97  1.00  1.00  1.00  1.00  1.00  1.00
1.00  1.00  1.00  1.00  1.00  1.00  1.00  0.97  0.63  0.41  0.23  0.20  0.38  0.20  0.23  0.41  0.63  0.97  1.00  1.00  1.00  1.00  1.00  1.00
1.00  1.00  1.00  1.00  1.00  1.00  1.00  0.97  0.63  0.41  0.23  0.20  0.38  0.20  0.23  0.41  0.63  0.97  1.00  1.00  1.00  1.00  1.00  1.00
1.00  1.00  1.00  1.00  1.00  1.00  1.00  0.97  0.63  0.41  0.23  0.20  0.38  0.20  0.23  0.41  0.63  0.97  1.00  1.00  1.00  1.00  1.00  1.00
1.00  1.00  1.00  1.00  1.00  1.00  1.00  0.97  0.63  0.41  0.23  0.20  0.38  0.20  0.23  0.41  0.63  0.97  1.00  1.00  1.00  1.00  1.00  1.00
1.00  1.00  1.00  1.00  1.00  1.00  1.00  0.97  0.63  0.41  0.23  0.20  0.38  0.20  0.23  0.41  0.63  0.97  1.00  1.00  1.00  1.00  1.00  1.00
1.00  1.00  1.00  1.00  1.00  1.00  1.00  0.97  0.63  0.41  0.23  0.20  0.38  0.20  0.23  0.41  0.63  0.97  1.00  1.00  1.00  1.00  1.00  1.00
1.00  1.00  1.00  1.00  1.00  1.00  1.00  0.97  0.63  0.41  0.23  0.20  0.38  0.20  0.23  0.41  0.63  0.97  1.00  1.00  1.00  1.00  1.00  1.00
1.00  1.00  1.00  1.00  1.00  1.00  1.00  0.97  0.63  0.41  0.23  0.20  0.38  0.20  0.23  0.41  0.63  0.97  1.00  1.00  1.00  1.00  1.00  1.00
1.00  1.00  1.00  1.00  1.00  1.00  1.00  0.97  0.63  0.41  0.23  0.20  0.38  0.20  0.23  0.41  0.63  0.97  1.00  1.00  1.00  1.00  1.00  1.00
1.00  1.00  1.00  1.00  1.00  1.00  1.00  0.97  0.63  0.41  0.23  0.20  0.38  0.20  0.23  0.41  0.63  0.97  1.00  1.00  1.00  1.00  1.00  1.00
1.00  1.00  1.00  1.00  1.00  1.00  1.00  0.97  0.63  0.41  0.23  0.20  0.38  0.20  0.23  0.41  0.63  0.97  1.00  1.00  1.00  1.00  1.00  1.00
1.00  1.00  1.00  1.00  1.00  1.00  1.00  0.97  0.63  0.41  0.23  0.20  0.38  0.20  0.23  0.41  0.63  0.97  1.00  1.00  1.00  1.00  1.00  1.00
1.00  1.00  1.00  1.00  1.00  1.00  1.00  0.97  0.63  0.41  0.23  0.20  0.38  0.20  0.23  0.41  0.63  0.97  1.00  1.00  1.00  1.00  1.00  1.00
1.00  1.00  1.00  1.00  1.00  1.00  1.00  0.97  0.63  0.41  0.23  0.20  0.38  0.20  0.23  0.41  0.63  0.97  1.00  1.00  1.00  1.00  1.00  1.00
$ ilon ilat of the cell. lon: 7.0, 33.6
4   6
$ sizes of the cell in km
    74.162       83.595       96.806      115.815      105.944       97.814       88.956       97.814      105.944      115.815       96.806       83.595       74.162       83.595       96.806      115.815      105.944       97.814       88.956       97.814      105.944      115.815       96.806       83.595
$ mean alpha: 0.692218693919
$ mean beta: 0.76058024997
$alpha by ik, ith
1.00  1.00  1.00  1.00  1.00  1.00  1.00  0.97  0.58  0.25  0.00  0.00  0.00  0.00  0.00  0.25  0.58  0.97  1.00  1.00  1.00  1.00  1.00  1.00
1.00  1.00  1.00  1.00  1.00  1.00  1.00  0.97  0.58  0.25  0.00  0.00  0.00  0.00  0.00  0.25  0.58  0.97  1.00  1.00  1.00  1.00  1.00  1.00
1.00  1.00  1.00  1.00  1.00  1.00  1.00  0.97  0.58  0.25  0.00  0.00  0.00  0.00  0.00  0.25  0.58  0.97  1.00  1.00  1.00  1.00  1.00  1.00
1.00  1.00  1.00  1.00  1.00  1.00  1.00  0.97  0.58  0.25  0.00  0.00  0.00  0.00  0.00  0.25  0.58  0.97  1.00  1.00  1.00  1.00  1.00  1.00
1.00  1.00  1.00  1.00  1.00  1.00  1.00  0.97  0.58  0.25  0.00  0.00  0.00  0.00  0.00  0.25  0.58  0.97  1.00  1.00  1.00  1.00  1.00  1.00
1.00  1.00  1.00  1.00  1.00  1.00  1.00  0.97  0.58  0.25  0.00  0.00  0.00  0.00  0.00  0.25  0.58  0.97  1.00  1.00  1.00  1.00  1.00  1.00
1.00  1.00  1.00  1.00  1.00  1.00  1.00  0.97  0.58  0.25  0.00  0.00  0.00  0.00  0.00  0.25  0.58  0.97  1.00  1.00  1.00  1.00  1.00  1.00
1.00  1.00  1.00  1.00  1.00  1.00  1.00  0.97  0.58  0.25  0.00  0.00  0.00  0.00  0.00  0.25  0.58  0.97  1.00  1.00  1.00  1.00  1.00  1.00
1.00  1.00  1.00  1.00  1.00  1.00  1.00  0.97  0.58  0.25  0.00  0.00  0.00  0.00  0.00  0.25  0.58  0.97  1.00  1.00  1.00  1.00  1.00  1.00
1.00  1.00  1.00  1.00  1.00  1.00  1.00  0.97  0.58  0.25  0.00  0.00  0.00  0.00  0.00  0.25  0.58  0.97  1.00  1.00  1.00  1.00  1.00  1.00
1.00  1.00  1.00  1.00  1.00  1.00  1.00  0.97  0.58  0.25  0.00  0.00  0.00  0.00  0.00  0.25  0.58  0.97  1.00  1.00  1.00  1.00  1.00  1.00
1.00  1.00  1.00  1.00  1.00  1.00  1.00  0.97  0.58  0.25  0.00  0.00  0.00  0.00  0.00  0.25  0.58  0.97  1.00  1.00  1.00  1.00  1.00  1.00
1.00  1.00  1.00  1.00  1.00  1.00  1.00  0.97  0.58  0.25  0.00  0.00  0.00  0.00  0.00  0.25  0.58  0.97  1.00  1.00  1.00  1.00  1.00  1.00
1.00  1.00  1.00  1.00  1.00  1.00  1.00  0.97  0.58  0.25  0.00  0.00  0.00  0.00  0.00  0.25  0.58  0.97  1.00  1.00  1.00  1.00  1.00  1.00
1.00  1.00  1.00  1.00  1.00  1.00  1.00  0.97  0.58  0.25  0.00  0.00  0.00  0.00  0.00  0.25  0.58  0.97  1.00  1.00  1.00  1.00  1.00  1.00
1.00  1.00  1.00  1.00  1.00  1.00  1.00  0.97  0.58  0.25  0.00  0.00  0.00  0.00  0.00  0.25  0.58  0.97  1.00  1.00  1.00  1.00  1.00  1.00
1.00  1.00  1.00  1.00  1.00  1.00  1.00  0.97  0.58  0.25  0.00  0.00  0.00  0.00  0.00  0.25  0.58  0.97  1.00  1.00  1.00  1.00  1.00  1.00
1.00  1.00  1.00  1.00  1.00  1.00  1.00  0.97  0.58  0.25  0.00  0.00  0.00  0.00  0.00  0.25  0.58  0.97  1.00  1.00  1.00  1.00  1.00  1.00
1.00  1.00  1.00  1.00  1.00  1.00  1.00  0.97  0.58  0.25  0.00  0.00  0.00  0.00  0.00  0.25  0.58  0.97  1.00  1.00  1.00  1.00  1.00  1.00
1.00  1.00  1.00  1.00  1.00  1.00  1.00  0.97  0.58  0.25  0.00  0.00  0.00  0.00  0.00  0.25  0.58  0.97  1.00  1.00  1.00  1.00  1.00  1.00
1.00  1.00  1.00  1.00  1.00  1.00  1.00  0.97  0.58  0.25  0.00  0.00  0.00  0.00  0.00  0.25  0.58  0.97  1.00  1.00  1.00  1.00  1.00  1.00
1.00  1.00  1.00  1.00  1.00  1.00  1.00  0.97  0.58  0.25  0.00  0.00  0.00  0.00  0.00  0.25  0.58  0.97  1.00  1.00  1.00  1.00  1.00  1.00
1.00  1.00  1.00  1.00  1.00  1.00  1.00  0.97  0.58  0.25  0.00  0.00  0.00  0.00  0.00  0.25  0.58  0.97  1.00  1.00  1.00  1.00  1.00  1.00
1.00  1.00  1.00  1.00  1.00  1.00  1.00  0.97  0.58  0.25  0.00  0.00  0.00  0.00  0.00  0.25  0.58  0.97  1.00  1.00  1.00  1.00  1.00  1.00
1.00  1.00  1.00  1.00  1.00  1.00  1.00  0.97  0.58  0.25  0.00  0.00  0.00  0.00  0.00  0.25  0.58  0.97  1.00  1.00  1.00  1.00  1.00  1.00
$beta by ik, ith
1.00  1.00  1.00  1.00  1.00  1.00  1.00  0.97  0.63  0.41  0.23  0.20  0.38  0.20  0.23  0.41  0.63  0.97  1.00  1.00  1.00  1.00  1.00  1.00
1.00  1.00  1.00  1.00  1.00  1.00  1.00  0.97  0.63  0.41  0.23  0.20  0.38  0.20  0.23  0.41  0.63  0.97  1.00  1.00  1.00  1.00  1.00  1.00
1.00  1.00  1.00  1.00  1.00  1.00  1.00  0.97  0.63  0.41  0.23  0.20  0.38  0.20  0.23  0.41  0.63  0.97  1.00  1.00  1.00  1.00  1.00  1.00
1.00  1.00  1.00  1.00  1.00  1.00  1.00  0.97  0.63  0.41  0.23  0.20  0.38  0.20  0.23  0.41  0.63  0.97  1.00  1.00  1.00  1.00  1.00  1.00
1.00  1.00  1.00  1.00  1.00  1.00  1.00  0.97  0.63  0.41  0.23  0.20  0.38  0.20  0.23  0.41  0.63  0.97  1.00  1.00  1.00  1.00  1.00  1.00
1.00  1.00  1.00  1.00  1.00  1.00  1.00  0.97  0.63  0.41  0.23  0.20  0.38  0.20  0.23  0.41  0.63  0.97  1.00  1.00  1.00  1.00  1.00  1.00
1.00  1.00  1.00  1.00  1.00  1.00  1.00  0.97  0.63  0.41  0.23  0.20  0.38  0.20  0.23  0.41  0.63  0.97  1.00  1.00  1.00  1.00  1.00  1.00
1.00  1.00  1.00  1.00  1.00  1.00  1.00  0.97  0.63  0.41  0.23  0.20  0.38  0.20  0.23  0.41  0.63  0.97  1.00  1.00  1.00  1.00  1.00  1.00
1.00  1.00  1.00  1.00  1.00  1.00  1.00  0.97  0.63  0.41  0.23  0.20  0.38  0.20  0.23  0.41  0.63  0.97  1.00  1.00  1.00  1.00  1.00  1.00
1.00  1.00  1.00  1.00  1.00  1.00  1.00  0.97  0.63  0.41  0.23  0.20  0.38  0.20  0.23  0.41  0.63  0.97  1.00  1.00  1.00  1.00  1.00  1.00
1.00  1.00  1.00  1.00  1.00  1.00  1.00  0.97  0.63  0.41  0.23  0.20  0.38  0.20  0.23  0.41  0.63  0.97  1.00  1.00  1.00  1.00  1.00  1.00
1.00  1.00  1.00  1.00  1.00  1.00  1.00  0.97  0.63  0.41  0.23  0.20  0.38  0.20  0.23  0.41  0.63  0.97  1.00  1.00  1.00  1.00  1.00  1.00
1.00  1.00  1.00  1.00  1.00  1.00  1.00  0.97  0.63  0.41  0.23  0.20  0.38  0.20  0.23  0.41  0.63  0.97  1.00  1.00  1.00  1.00  1.00  1.00
1.00  1.00  1.00  1.00  1.00  1.00  1.00  0.97  0.63  0.41  0.23  0.20  0.38  0.20  0.23  0.41  0.63  0.97  1.00  1.00  1.00  1.00  1.00  1.00
1.00  1.00  1.00  1.00  1.00  1.00  1.00  0.97  0.63  0.41  0.23  0.20  0.38  0.20  0.23  0.41  0.63  0.97  1.00  1.00  1.00  1.00  1.00  1.00
1.00  1.00  1.00  1.00  1.00  1.00  1.00  0.97  0.63  0.41  0.23  0.20  0.38  0.20  0.23  0.41  0.63  0.97  1.00  1.00  1.00  1.00  1.00  1.00
1.00  1.00  1.00  1.00  1.00  1.00  1.00  0.97  0.63  0.41  0.23  0.20  0.38  0.20  0.23  0.41  0.63  0.97  1.00  1.00  1.00  1.00  1.00  1.00
1.00  1.00  1.00  1.00  1.00  1.00  1.00  0.97  0.63  0.41  0.23  0.20  0.38  0.20  0.23  0.41  0.63  0.97  1.00  1.00  1.00  1.00  1.00  1.00
1.00  1.00  1.00  1.00  1.00  1.00  1.00  0.97  0.63  0.41  0.23  0.20  0.38  0.20  0.23  0.41  0.63  0.97  1.00  1.00  1.00  1.00  1.00  1.00
1.00  1.00  1.00  1.00  1.00  1.00  1.00  0.97  0.63  0.41  0.23  0.20  0.38  0.20  0.23  0.41  0.63  0.97  1.00  1.00  1.00  1.00  1.00  1.00
1.00  1.00  1.00  1.00  1.00  1.00  1.00  0.97  0.63  0.41  0.23  0.20  0.38  0.20  0.23  0.41  0.63  0.97  1.00  1.00  1.00  1.00  1.00  1.00
1.00  1.00  1.00  1.00  1.00  1.00  1.00  0.97  0.63  0.41  0.23  0.20  0.38  0.20  0.23  0.41  0.63  0.97  1.00  1.00  1.00  1.00  1.00  1.00
1.00  1.00  1.00  1.00  1.00  1.00  1.00  0.97  0.63  0.41  0.23  0.20  0.38  0.20  0.23  0.41  0.63  0.97  1.00  1.00  1.00  1.00  1.00  1.00
1.00  1.00  1.00  1.00  1.00  1.00  1.00  0.97  0.63  0.41  0.23  0.20  0.38  0.20  0.23  0.41  0.63  0.97  1.00  1.00  1.00  1.00  1.00  1.00
1.00  1.00  1.00  1.00  1.00  1.00  1.00  0.97  0.63  0.41  0.23  0.20  0.38  0.20  0.23  0.41  0.63  0.97  1.00  1.00  1.00  1.00  1.00  1.00
$ ilon ilat of the cell. lon: 7.0, 34.4
4   7
$ sizes of the cell in km
    73.469       82.887       96.196      115.373      105.759       97.771       88.956       97.771      105.759      115.373       96.196       82.887       73.469       82.887       96.196      115.373      105.759       97.771       88.956       97.771      105.759      115.373       96.196       82.887
$ mean alpha: 0.692218693919
$ mean beta: 0.76058024997
$alpha by ik, ith
1.00  1.00  1.00  1.00  1.00  1.00  1.00  0.97  0.58  0.25  0.00  0.00  0.00  0.00  0.00  0.25  0.58  0.97  1.00  1.00  1.00  1.00  1.00  1.00
1.00  1.00  1.00  1.00  1.00  1.00  1.00  0.97  0.58  0.25  0.00  0.00  0.00  0.00  0.00  0.25  0.58  0.97  1.00  1.00  1.00  1.00  1.00  1.00
1.00  1.00  1.00  1.00  1.00  1.00  1.00  0.97  0.58  0.25  0.00  0.00  0.00  0.00  0.00  0.25  0.58  0.97  1.00  1.00  1.00  1.00  1.00  1.00
1.00  1.00  1.00  1.00  1.00  1.00  1.00  0.97  0.58  0.25  0.00  0.00  0.00  0.00  0.00  0.25  0.58  0.97  1.00  1.00  1.00  1.00  1.00  1.00
1.00  1.00  1.00  1.00  1.00  1.00  1.00  0.97  0.58  0.25  0.00  0.00  0.00  0.00  0.00  0.25  0.58  0.97  1.00  1.00  1.00  1.00  1.00  1.00
1.00  1.00  1.00  1.00  1.00  1.00  1.00  0.97  0.58  0.25  0.00  0.00  0.00  0.00  0.00  0.25  0.58  0.97  1.00  1.00  1.00  1.00  1.00  1.00
1.00  1.00  1.00  1.00  1.00  1.00  1.00  0.97  0.58  0.25  0.00  0.00  0.00  0.00  0.00  0.25  0.58  0.97  1.00  1.00  1.00  1.00  1.00  1.00
1.00  1.00  1.00  1.00  1.00  1.00  1.00  0.97  0.58  0.25  0.00  0.00  0.00  0.00  0.00  0.25  0.58  0.97  1.00  1.00  1.00  1.00  1.00  1.00
1.00  1.00  1.00  1.00  1.00  1.00  1.00  0.97  0.58  0.25  0.00  0.00  0.00  0.00  0.00  0.25  0.58  0.97  1.00  1.00  1.00  1.00  1.00  1.00
1.00  1.00  1.00  1.00  1.00  1.00  1.00  0.97  0.58  0.25  0.00  0.00  0.00  0.00  0.00  0.25  0.58  0.97  1.00  1.00  1.00  1.00  1.00  1.00
1.00  1.00  1.00  1.00  1.00  1.00  1.00  0.97  0.58  0.25  0.00  0.00  0.00  0.00  0.00  0.25  0.58  0.97  1.00  1.00  1.00  1.00  1.00  1.00
1.00  1.00  1.00  1.00  1.00  1.00  1.00  0.97  0.58  0.25  0.00  0.00  0.00  0.00  0.00  0.25  0.58  0.97  1.00  1.00  1.00  1.00  1.00  1.00
1.00  1.00  1.00  1.00  1.00  1.00  1.00  0.97  0.58  0.25  0.00  0.00  0.00  0.00  0.00  0.25  0.58  0.97  1.00  1.00  1.00  1.00  1.00  1.00
1.00  1.00  1.00  1.00  1.00  1.00  1.00  0.97  0.58  0.25  0.00  0.00  0.00  0.00  0.00  0.25  0.58  0.97  1.00  1.00  1.00  1.00  1.00  1.00
1.00  1.00  1.00  1.00  1.00  1.00  1.00  0.97  0.58  0.25  0.00  0.00  0.00  0.00  0.00  0.25  0.58  0.97  1.00  1.00  1.00  1.00  1.00  1.00
1.00  1.00  1.00  1.00  1.00  1.00  1.00  0.97  0.58  0.25  0.00  0.00  0.00  0.00  0.00  0.25  0.58  0.97  1.00  1.00  1.00  1.00  1.00  1.00
1.00  1.00  1.00  1.00  1.00  1.00  1.00  0.97  0.58  0.25  0.00  0.00  0.00  0.00  0.00  0.25  0.58  0.97  1.00  1.00  1.00  1.00  1.00  1.00
1.00  1.00  1.00  1.00  1.00  1.00  1.00  0.97  0.58  0.25  0.00  0.00  0.00  0.00  0.00  0.25  0.58  0.97  1.00  1.00  1.00  1.00  1.00  1.00
1.00  1.00  1.00  1.00  1.00  1.00  1.00  0.97  0.58  0.25  0.00  0.00  0.00  0.00  0.00  0.25  0.58  0.97  1.00  1.00  1.00  1.00  1.00  1.00
1.00  1.00  1.00  1.00  1.00  1.00  1.00  0.97  0.58  0.25  0.00  0.00  0.00  0.00  0.00  0.25  0.58  0.97  1.00  1.00  1.00  1.00  1.00  1.00
1.00  1.00  1.00  1.00  1.00  1.00  1.00  0.97  0.58  0.25  0.00  0.00  0.00  0.00  0.00  0.25  0.58  0.97  1.00  1.00  1.00  1.00  1.00  1.00
1.00  1.00  1.00  1.00  1.00  1.00  1.00  0.97  0.58  0.25  0.00  0.00  0.00  0.00  0.00  0.25  0.58  0.97  1.00  1.00  1.00  1.00  1.00  1.00
1.00  1.00  1.00  1.00  1.00  1.00  1.00  0.97  0.58  0.25  0.00  0.00  0.00  0.00  0.00  0.25  0.58  0.97  1.00  1.00  1.00  1.00  1.00  1.00
1.00  1.00  1.00  1.00  1.00  1.00  1.00  0.97  0.58  0.25  0.00  0.00  0.00  0.00  0.00  0.25  0.58  0.97  1.00  1.00  1.00  1.00  1.00  1.00
1.00  1.00  1.00  1.00  1.00  1.00  1.00  0.97  0.58  0.25  0.00  0.00  0.00  0.00  0.00  0.25  0.58  0.97  1.00  1.00  1.00  1.00  1.00  1.00
$beta by ik, ith
1.00  1.00  1.00  1.00  1.00  1.00  1.00  0.97  0.63  0.41  0.23  0.20  0.38  0.20  0.23  0.41  0.63  0.97  1.00  1.00  1.00  1.00  1.00  1.00
1.00  1.00  1.00  1.00  1.00  1.00  1.00  0.97  0.63  0.41  0.23  0.20  0.38  0.20  0.23  0.41  0.63  0.97  1.00  1.00  1.00  1.00  1.00  1.00
1.00  1.00  1.00  1.00  1.00  1.00  1.00  0.97  0.63  0.41  0.23  0.20  0.38  0.20  0.23  0.41  0.63  0.97  1.00  1.00  1.00  1.00  1.00  1.00
1.00  1.00  1.00  1.00  1.00  1.00  1.00  0.97  0.63  0.41  0.23  0.20  0.38  0.20  0.23  0.41  0.63  0.97  1.00  1.00  1.00  1.00  1.00  1.00
1.00  1.00  1.00  1.00  1.00  1.00  1.00  0.97  0.63  0.41  0.23  0.20  0.38  0.20  0.23  0.41  0.63  0.97  1.00  1.00  1.00  1.00  1.00  1.00
1.00  1.00  1.00  1.00  1.00  1.00  1.00  0.97  0.63  0.41  0.23  0.20  0.38  0.20  0.23  0.41  0.63  0.97  1.00  1.00  1.00  1.00  1.00  1.00
1.00  1.00  1.00  1.00  1.00  1.00  1.00  0.97  0.63  0.41  0.23  0.20  0.38  0.20  0.23  0.41  0.63  0.97  1.00  1.00  1.00  1.00  1.00  1.00
1.00  1.00  1.00  1.00  1.00  1.00  1.00  0.97  0.63  0.41  0.23  0.20  0.38  0.20  0.23  0.41  0.63  0.97  1.00  1.00  1.00  1.00  1.00  1.00
1.00  1.00  1.00  1.00  1.00  1.00  1.00  0.97  0.63  0.41  0.23  0.20  0.38  0.20  0.23  0.41  0.63  0.97  1.00  1.00  1.00  1.00  1.00  1.00
1.00  1.00  1.00  1.00  1.00  1.00  1.00  0.97  0.63  0.41  0.23  0.20  0.38  0.20  0.23  0.41  0.63  0.97  1.00  1.00  1.00  1.00  1.00  1.00
1.00  1.00  1.00  1.00  1.00  1.00  1.00  0.97  0.63  0.41  0.23  0.20  0.38  0.20  0.23  0.41  0.63  0.97  1.00  1.00  1.00  1.00  1.00  1.00
1.00  1.00  1.00  1.00  1.00  1.00  1.00  0.97  0.63  0.41  0.23  0.20  0.38  0.20  0.23  0.41  0.63  0.97  1.00  1.00  1.00  1.00  1.00  1.00
1.00  1.00  1.00  1.00  1.00  1.00  1.00  0.97  0.63  0.41  0.23  0.20  0.38  0.20  0.23  0.41  0.63  0.97  1.00  1.00  1.00  1.00  1.00  1.00
1.00  1.00  1.00  1.00  1.00  1.00  1.00  0.97  0.63  0.41  0.23  0.20  0.38  0.20  0.23  0.41  0.63  0.97  1.00  1.00  1.00  1.00  1.00  1.00
1.00  1.00  1.00  1.00  1.00  1.00  1.00  0.97  0.63  0.41  0.23  0.20  0.38  0.20  0.23  0.41  0.63  0.97  1.00  1.00  1.00  1.00  1.00  1.00
1.00  1.00  1.00  1.00  1.00  1.00  1.00  0.97  0.63  0.41  0.23  0.20  0.38  0.20  0.23  0.41  0.63  0.97  1.00  1.00  1.00  1.00  1.00  1.00
1.00  1.00  1.00  1.00  1.00  1.00  1.00  0.97  0.63  0.41  0.23  0.20  0.38  0.20  0.23  0.41  0.63  0.97  1.00  1.00  1.00  1.00  1.00  1.00
1.00  1.00  1.00  1.00  1.00  1.00  1.00  0.97  0.63  0.41  0.23  0.20  0.38  0.20  0.23  0.41  0.63  0.97  1.00  1.00  1.00  1.00  1.00  1.00
1.00  1.00  1.00  1.00  1.00  1.00  1.00  0.97  0.63  0.41  0.23  0.20  0.38  0.20  0.23  0.41  0.63  0.97  1.00  1.00  1.00  1.00  1.00  1.00
1.00  1.00  1.00  1.00  1.00  1.00  1.00  0.97  0.63  0.41  0.23  0.20  0.38  0.20  0.23  0.41  0.63  0.97  1.00  1.00  1.00  1.00  1.00  1.00
1.00  1.00  1.00  1.00  1.00  1.00  1.00  0.97  0.63  0.41  0.23  0.20  0.38  0.20  0.23  0.41  0.63  0.97  1.00  1.00  1.00  1.00  1.00  1.00
1.00  1.00  1.00  1.00  1.00  1.00  1.00  0.97  0.63  0.41  0.23  0.20  0.38  0.20  0.23  0.41  0.63  0.97  1.00  1.00  1.00  1.00  1.00  1.00
1.00  1.00  1.00  1.00  1.00  1.00  1.00  0.97  0.63  0.41  0.23  0.20  0.38  0.20  0.23  0.41  0.63  0.97  1.00  1.00  1.00  1.00  1.00  1.00
1.00  1.00  1.00  1.00  1.00  1.00  1.00  0.97  0.63  0.41  0.23  0.20  0.38  0.20  0.23  0.41  0.63  0.97  1.00  1.00  1.00  1.00  1.00  1.00
1.00  1.00  1.00  1.00  1.00  1.00  1.00  0.97  0.63  0.41  0.23  0.20  0.38  0.20  0.23  0.41  0.63  0.97  1.00  1.00  1.00  1.00  1.00  1.00
$ ilon ilat of the cell. lon: 7.0, 35.2
4   8
$ sizes of the cell in km
    72.761       82.166       95.575      114.923      105.571       97.727       88.956       97.727      105.571      114.923       95.575       82.166       72.761       82.166       95.575      114.923      105.571       97.727       88.956       97.727      105.571      114.923       95.575       82.166
$ mean alpha: 0.692218693919
$ mean beta: 0.76058024997
$alpha by ik, ith
1.00  1.00  1.00  1.00  1.00  1.00  1.00  0.97  0.58  0.25  0.00  0.00  0.00  0.00  0.00  0.25  0.58  0.97  1.00  1.00  1.00  1.00  1.00  1.00
1.00  1.00  1.00  1.00  1.00  1.00  1.00  0.97  0.58  0.25  0.00  0.00  0.00  0.00  0.00  0.25  0.58  0.97  1.00  1.00  1.00  1.00  1.00  1.00
1.00  1.00  1.00  1.00  1.00  1.00  1.00  0.97  0.58  0.25  0.00  0.00  0.00  0.00  0.00  0.25  0.58  0.97  1.00  1.00  1.00  1.00  1.00  1.00
1.00  1.00  1.00  1.00  1.00  1.00  1.00  0.97  0.58  0.25  0.00  0.00  0.00  0.00  0.00  0.25  0.58  0.97  1.00  1.00  1.00  1.00  1.00  1.00
1.00  1.00  1.00  1.00  1.00  1.00  1.00  0.97  0.58  0.25  0.00  0.00  0.00  0.00  0.00  0.25  0.58  0.97  1.00  1.00  1.00  1.00  1.00  1.00
1.00  1.00  1.00  1.00  1.00  1.00  1.00  0.97  0.58  0.25  0.00  0.00  0.00  0.00  0.00  0.25  0.58  0.97  1.00  1.00  1.00  1.00  1.00  1.00
1.00  1.00  1.00  1.00  1.00  1.00  1.00  0.97  0.58  0.25  0.00  0.00  0.00  0.00  0.00  0.25  0.58  0.97  1.00  1.00  1.00  1.00  1.00  1.00
1.00  1.00  1.00  1.00  1.00  1.00  1.00  0.97  0.58  0.25  0.00  0.00  0.00  0.00  0.00  0.25  0.58  0.97  1.00  1.00  1.00  1.00  1.00  1.00
1.00  1.00  1.00  1.00  1.00  1.00  1.00  0.97  0.58  0.25  0.00  0.00  0.00  0.00  0.00  0.25  0.58  0.97  1.00  1.00  1.00  1.00  1.00  1.00
1.00  1.00  1.00  1.00  1.00  1.00  1.00  0.97  0.58  0.25  0.00  0.00  0.00  0.00  0.00  0.25  0.58  0.97  1.00  1.00  1.00  1.00  1.00  1.00
1.00  1.00  1.00  1.00  1.00  1.00  1.00  0.97  0.58  0.25  0.00  0.00  0.00  0.00  0.00  0.25  0.58  0.97  1.00  1.00  1.00  1.00  1.00  1.00
1.00  1.00  1.00  1.00  1.00  1.00  1.00  0.97  0.58  0.25  0.00  0.00  0.00  0.00  0.00  0.25  0.58  0.97  1.00  1.00  1.00  1.00  1.00  1.00
1.00  1.00  1.00  1.00  1.00  1.00  1.00  0.97  0.58  0.25  0.00  0.00  0.00  0.00  0.00  0.25  0.58  0.97  1.00  1.00  1.00  1.00  1.00  1.00
1.00  1.00  1.00  1.00  1.00  1.00  1.00  0.97  0.58  0.25  0.00  0.00  0.00  0.00  0.00  0.25  0.58  0.97  1.00  1.00  1.00  1.00  1.00  1.00
1.00  1.00  1.00  1.00  1.00  1.00  1.00  0.97  0.58  0.25  0.00  0.00  0.00  0.00  0.00  0.25  0.58  0.97  1.00  1.00  1.00  1.00  1.00  1.00
1.00  1.00  1.00  1.00  1.00  1.00  1.00  0.97  0.58  0.25  0.00  0.00  0.00  0.00  0.00  0.25  0.58  0.97  1.00  1.00  1.00  1.00  1.00  1.00
1.00  1.00  1.00  1.00  1.00  1.00  1.00  0.97  0.58  0.25  0.00  0.00  0.00  0.00  0.00  0.25  0.58  0.97  1.00  1.00  1.00  1.00  1.00  1.00
1.00  1.00  1.00  1.00  1.00  1.00  1.00  0.97  0.58  0.25  0.00  0.00  0.00  0.00  0.00  0.25  0.58  0.97  1.00  1.00  1.00  1.00  1.00  1.00
1.00  1.00  1.00  1.00  1.00  1.00  1.00  0.97  0.58  0.25  0.00  0.00  0.00  0.00  0.00  0.25  0.58  0.97  1.00  1.00  1.00  1.00  1.00  1.00
1.00  1.00  1.00  1.00  1.00  1.00  1.00  0.97  0.58  0.25  0.00  0.00  0.00  0.00  0.00  0.25  0.58  0.97  1.00  1.00  1.00  1.00  1.00  1.00
1.00  1.00  1.00  1.00  1.00  1.00  1.00  0.97  0.58  0.25  0.00  0.00  0.00  0.00  0.00  0.25  0.58  0.97  1.00  1.00  1.00  1.00  1.00  1.00
1.00  1.00  1.00  1.00  1.00  1.00  1.00  0.97  0.58  0.25  0.00  0.00  0.00  0.00  0.00  0.25  0.58  0.97  1.00  1.00  1.00  1.00  1.00  1.00
1.00  1.00  1.00  1.00  1.00  1.00  1.00  0.97  0.58  0.25  0.00  0.00  0.00  0.00  0.00  0.25  0.58  0.97  1.00  1.00  1.00  1.00  1.00  1.00
1.00  1.00  1.00  1.00  1.00  1.00  1.00  0.97  0.58  0.25  0.00  0.00  0.00  0.00  0.00  0.25  0.58  0.97  1.00  1.00  1.00  1.00  1.00  1.00
1.00  1.00  1.00  1.00  1.00  1.00  1.00  0.97  0.58  0.25  0.00  0.00  0.00  0.00  0.00  0.25  0.58  0.97  1.00  1.00  1.00  1.00  1.00  1.00
$beta by ik, ith
1.00  1.00  1.00  1.00  1.00  1.00  1.00  0.97  0.63  0.41  0.23  0.20  0.38  0.20  0.23  0.41  0.63  0.97  1.00  1.00  1.00  1.00  1.00  1.00
1.00  1.00  1.00  1.00  1.00  1.00  1.00  0.97  0.63  0.41  0.23  0.20  0.38  0.20  0.23  0.41  0.63  0.97  1.00  1.00  1.00  1.00  1.00  1.00
1.00  1.00  1.00  1.00  1.00  1.00  1.00  0.97  0.63  0.41  0.23  0.20  0.38  0.20  0.23  0.41  0.63  0.97  1.00  1.00  1.00  1.00  1.00  1.00
1.00  1.00  1.00  1.00  1.00  1.00  1.00  0.97  0.63  0.41  0.23  0.20  0.38  0.20  0.23  0.41  0.63  0.97  1.00  1.00  1.00  1.00  1.00  1.00
1.00  1.00  1.00  1.00  1.00  1.00  1.00  0.97  0.63  0.41  0.23  0.20  0.38  0.20  0.23  0.41  0.63  0.97  1.00  1.00  1.00  1.00  1.00  1.00
1.00  1.00  1.00  1.00  1.00  1.00  1.00  0.97  0.63  0.41  0.23  0.20  0.38  0.20  0.23  0.41  0.63  0.97  1.00  1.00  1.00  1.00  1.00  1.00
1.00  1.00  1.00  1.00  1.00  1.00  1.00  0.97  0.63  0.41  0.23  0.20  0.38  0.20  0.23  0.41  0.63  0.97  1.00  1.00  1.00  1.00  1.00  1.00
1.00  1.00  1.00  1.00  1.00  1.00  1.00  0.97  0.63  0.41  0.23  0.20  0.38  0.20  0.23  0.41  0.63  0.97  1.00  1.00  1.00  1.00  1.00  1.00
1.00  1.00  1.00  1.00  1.00  1.00  1.00  0.97  0.63  0.41  0.23  0.20  0.38  0.20  0.23  0.41  0.63  0.97  1.00  1.00  1.00  1.00  1.00  1.00
1.00  1.00  1.00  1.00  1.00  1.00  1.00  0.97  0.63  0.41  0.23  0.20  0.38  0.20  0.23  0.41  0.63  0.97  1.00  1.00  1.00  1.00  1.00  1.00
1.00  1.00  1.00  1.00  1.00  1.00  1.00  0.97  0.63  0.41  0.23  0.20  0.38  0.20  0.23  0.41  0.63  0.97  1.00  1.00  1.00  1.00  1.00  1.00
1.00  1.00  1.00  1.00  1.00  1.00  1.00  0.97  0.63  0.41  0.23  0.20  0.38  0.20  0.23  0.41  0.63  0.97  1.00  1.00  1.00  1.00  1.00  1.00
1.00  1.00  1.00  1.00  1.00  1.00  1.00  0.97  0.63  0.41  0.23  0.20  0.38  0.20  0.23  0.41  0.63  0.97  1.00  1.00  1.00  1.00  1.00  1.00
1.00  1.00  1.00  1.00  1.00  1.00  1.00  0.97  0.63  0.41  0.23  0.20  0.38  0.20  0.23  0.41  0.63  0.97  1.00  1.00  1.00  1.00  1.00  1.00
1.00  1.00  1.00  1.00  1.00  1.00  1.00  0.97  0.63  0.41  0.23  0.20  0.38  0.20  0.23  0.41  0.63  0.97  1.00  1.00  1.00  1.00  1.00  1.00
1.00  1.00  1.00  1.00  1.00  1.00  1.00  0.97  0.63  0.41  0.23  0.20  0.38  0.20  0.23  0.41  0.63  0.97  1.00  1.00  1.00  1.00  1.00  1.00
1.00  1.00  1.00  1.00  1.00  1.00  1.00  0.97  0.63  0.41  0.23  0.20  0.38  0.20  0.23  0.41  0.63  0.97  1.00  1.00  1.00  1.00  1.00  1.00
1.00  1.00  1.00  1.00  1.00  1.00  1.00  0.97  0.63  0.41  0.23  0.20  0.38  0.20  0.23  0.41  0.63  0.97  1.00  1.00  1.00  1.00  1.00  1.00
1.00  1.00  1.00  1.00  1.00  1.00  1.00  0.97  0.63  0.41  0.23  0.20  0.38  0.20  0.23  0.41  0.63  0.97  1.00  1.00  1.00  1.00  1.00  1.00
1.00  1.00  1.00  1.00  1.00  1.00  1.00  0.97  0.63  0.41  0.23  0.20  0.38  0.20  0.23  0.41  0.63  0.97  1.00  1.00  1.00  1.00  1.00  1.00
1.00  1.00  1.00  1.00  1.00  1.00  1.00  0.97  0.63  0.41  0.23  0.20  0.38  0.20  0.23  0.41  0.63  0.97  1.00  1.00  1.00  1.00  1.00  1.00
1.00  1.00  1.00  1.00  1.00  1.00  1.00  0.97  0.63  0.41  0.23  0.20  0.38  0.20  0.23  0.41  0.63  0.97  1.00  1.00  1.00  1.00  1.00  1.00
1.00  1.00  1.00  1.00  1.00  1.00  1.00  0.97  0.63  0.41  0.23  0.20  0.38  0.20  0.23  0.41  0.63  0.97  1.00  1.00  1.00  1.00  1.00  1.00
1.00  1.00  1.00  1.00  1.00  1.00  1.00  0.97  0.63  0.41  0.23  0.20  0.38  0.20  0.23  0.41  0.63  0.97  1.00  1.00  1.00  1.00  1.00  1.00
1.00  1.00  1.00  1.00  1.00  1.00  1.00  0.97  0.63  0.41  0.23  0.20  0.38  0.20  0.23  0.41  0.63  0.97  1.00  1.00  1.00  1.00  1.00  1.00
$ ilon ilat of the cell. lon: 7.0, 36.0
4   9
$ sizes of the cell in km
    72.040       81.430       94.943      114.468      105.381       97.683       88.956       97.683      105.381      114.468       94.943       81.430       72.040       81.430       94.943      114.468      105.381       97.683       88.956       97.683      105.381      114.468       94.943       81.430
$ mean alpha: 0.692218693919
$ mean beta: 0.76058024997
$alpha by ik, ith
1.00  1.00  1.00  1.00  1.00  1.00  1.00  0.97  0.58  0.25  0.00  0.00  0.00  0.00  0.00  0.25  0.58  0.97  1.00  1.00  1.00  1.00  1.00  1.00
1.00  1.00  1.00  1.00  1.00  1.00  1.00  0.97  0.58  0.25  0.00  0.00  0.00  0.00  0.00  0.25  0.58  0.97  1.00  1.00  1.00  1.00  1.00  1.00
1.00  1.00  1.00  1.00  1.00  1.00  1.00  0.97  0.58  0.25  0.00  0.00  0.00  0.00  0.00  0.25  0.58  0.97  1.00  1.00  1.00  1.00  1.00  1.00
1.00  1.00  1.00  1.00  1.00  1.00  1.00  0.97  0.58  0.25  0.00  0.00  0.00  0.00  0.00  0.25  0.58  0.97  1.00  1.00  1.00  1.00  1.00  1.00
1.00  1.00  1.00  1.00  1.00  1.00  1.00  0.97  0.58  0.25  0.00  0.00  0.00  0.00  0.00  0.25  0.58  0.97  1.00  1.00  1.00  1.00  1.00  1.00
1.00  1.00  1.00  1.00  1.00  1.00  1.00  0.97  0.58  0.25  0.00  0.00  0.00  0.00  0.00  0.25  0.58  0.97  1.00  1.00  1.00  1.00  1.00  1.00
1.00  1.00  1.00  1.00  1.00  1.00  1.00  0.97  0.58  0.25  0.00  0.00  0.00  0.00  0.00  0.25  0.58  0.97  1.00  1.00  1.00  1.00  1.00  1.00
1.00  1.00  1.00  1.00  1.00  1.00  1.00  0.97  0.58  0.25  0.00  0.00  0.00  0.00  0.00  0.25  0.58  0.97  1.00  1.00  1.00  1.00  1.00  1.00
1.00  1.00  1.00  1.00  1.00  1.00  1.00  0.97  0.58  0.25  0.00  0.00  0.00  0.00  0.00  0.25  0.58  0.97  1.00  1.00  1.00  1.00  1.00  1.00
1.00  1.00  1.00  1.00  1.00  1.00  1.00  0.97  0.58  0.25  0.00  0.00  0.00  0.00  0.00  0.25  0.58  0.97  1.00  1.00  1.00  1.00  1.00  1.00
1.00  1.00  1.00  1.00  1.00  1.00  1.00  0.97  0.58  0.25  0.00  0.00  0.00  0.00  0.00  0.25  0.58  0.97  1.00  1.00  1.00  1.00  1.00  1.00
1.00  1.00  1.00  1.00  1.00  1.00  1.00  0.97  0.58  0.25  0.00  0.00  0.00  0.00  0.00  0.25  0.58  0.97  1.00  1.00  1.00  1.00  1.00  1.00
1.00  1.00  1.00  1.00  1.00  1.00  1.00  0.97  0.58  0.25  0.00  0.00  0.00  0.00  0.00  0.25  0.58  0.97  1.00  1.00  1.00  1.00  1.00  1.00
1.00  1.00  1.00  1.00  1.00  1.00  1.00  0.97  0.58  0.25  0.00  0.00  0.00  0.00  0.00  0.25  0.58  0.97  1.00  1.00  1.00  1.00  1.00  1.00
1.00  1.00  1.00  1.00  1.00  1.00  1.00  0.97  0.58  0.25  0.00  0.00  0.00  0.00  0.00  0.25  0.58  0.97  1.00  1.00  1.00  1.00  1.00  1.00
1.00  1.00  1.00  1.00  1.00  1.00  1.00  0.97  0.58  0.25  0.00  0.00  0.00  0.00  0.00  0.25  0.58  0.97  1.00  1.00  1.00  1.00  1.00  1.00
1.00  1.00  1.00  1.00  1.00  1.00  1.00  0.97  0.58  0.25  0.00  0.00  0.00  0.00  0.00  0.25  0.58  0.97  1.00  1.00  1.00  1.00  1.00  1.00
1.00  1.00  1.00  1.00  1.00  1.00  1.00  0.97  0.58  0.25  0.00  0.00  0.00  0.00  0.00  0.25  0.58  0.97  1.00  1.00  1.00  1.00  1.00  1.00
1.00  1.00  1.00  1.00  1.00  1.00  1.00  0.97  0.58  0.25  0.00  0.00  0.00  0.00  0.00  0.25  0.58  0.97  1.00  1.00  1.00  1.00  1.00  1.00
1.00  1.00  1.00  1.00  1.00  1.00  1.00  0.97  0.58  0.25  0.00  0.00  0.00  0.00  0.00  0.25  0.58  0.97  1.00  1.00  1.00  1.00  1.00  1.00
1.00  1.00  1.00  1.00  1.00  1.00  1.00  0.97  0.58  0.25  0.00  0.00  0.00  0.00  0.00  0.25  0.58  0.97  1.00  1.00  1.00  1.00  1.00  1.00
1.00  1.00  1.00  1.00  1.00  1.00  1.00  0.97  0.58  0.25  0.00  0.00  0.00  0.00  0.00  0.25  0.58  0.97  1.00  1.00  1.00  1.00  1.00  1.00
1.00  1.00  1.00  1.00  1.00  1.00  1.00  0.97  0.58  0.25  0.00  0.00  0.00  0.00  0.00  0.25  0.58  0.97  1.00  1.00  1.00  1.00  1.00  1.00
1.00  1.00  1.00  1.00  1.00  1.00  1.00  0.97  0.58  0.25  0.00  0.00  0.00  0.00  0.00  0.25  0.58  0.97  1.00  1.00  1.00  1.00  1.00  1.00
1.00  1.00  1.00  1.00  1.00  1.00  1.00  0.97  0.58  0.25  0.00  0.00  0.00  0.00  0.00  0.25  0.58  0.97  1.00  1.00  1.00  1.00  1.00  1.00
$beta by ik, ith
1.00  1.00  1.00  1.00  1.00  1.00  1.00  0.97  0.63  0.41  0.23  0.20  0.38  0.20  0.23  0.41  0.63  0.97  1.00  1.00  1.00  1.00  1.00  1.00
1.00  1.00  1.00  1.00  1.00  1.00  1.00  0.97  0.63  0.41  0.23  0.20  0.38  0.20  0.23  0.41  0.63  0.97  1.00  1.00  1.00  1.00  1.00  1.00
1.00  1.00  1.00  1.00  1.00  1.00  1.00  0.97  0.63  0.41  0.23  0.20  0.38  0.20  0.23  0.41  0.63  0.97  1.00  1.00  1.00  1.00  1.00  1.00
1.00  1.00  1.00  1.00  1.00  1.00  1.00  0.97  0.63  0.41  0.23  0.20  0.38  0.20  0.23  0.41  0.63  0.97  1.00  1.00  1.00  1.00  1.00  1.00
1.00  1.00  1.00  1.00  1.00  1.00  1.00  0.97  0.63  0.41  0.23  0.20  0.38  0.20  0.23  0.41  0.63  0.97  1.00  1.00  1.00  1.00  1.00  1.00
1.00  1.00  1.00  1.00  1.00  1.00  1.00  0.97  0.63  0.41  0.23  0.20  0.38  0.20  0.23  0.41  0.63  0.97  1.00  1.00  1.00  1.00  1.00  1.00
1.00  1.00  1.00  1.00  1.00  1.00  1.00  0.97  0.63  0.41  0.23  0.20  0.38  0.20  0.23  0.41  0.63  0.97  1.00  1.00  1.00  1.00  1.00  1.00
1.00  1.00  1.00  1.00  1.00  1.00  1.00  0.97  0.63  0.41  0.23  0.20  0.38  0.20  0.23  0.41  0.63  0.97  1.00  1.00  1.00  1.00  1.00  1.00
1.00  1.00  1.00  1.00  1.00  1.00  1.00  0.97  0.63  0.41  0.23  0.20  0.38  0.20  0.23  0.41  0.63  0.97  1.00  1.00  1.00  1.00  1.00  1.00
1.00  1.00  1.00  1.00  1.00  1.00  1.00  0.97  0.63  0.41  0.23  0.20  0.38  0.20  0.23  0.41  0.63  0.97  1.00  1.00  1.00  1.00  1.00  1.00
1.00  1.00  1.00  1.00  1.00  1.00  1.00  0.97  0.63  0.41  0.23  0.20  0.38  0.20  0.23  0.41  0.63  0.97  1.00  1.00  1.00  1.00  1.00  1.00
1.00  1.00  1.00  1.00  1.00  1.00  1.00  0.97  0.63  0.41  0.23  0.20  0.38  0.20  0.23  0.41  0.63  0.97  1.00  1.00  1.00  1.00  1.00  1.00
1.00  1.00  1.00  1.00  1.00  1.00  1.00  0.97  0.63  0.41  0.23  0.20  0.38  0.20  0.23  0.41  0.63  0.97  1.00  1.00  1.00  1.00  1.00  1.00
1.00  1.00  1.00  1.00  1.00  1.00  1.00  0.97  0.63  0.41  0.23  0.20  0.38  0.20  0.23  0.41  0.63  0.97  1.00  1.00  1.00  1.00  1.00  1.00
1.00  1.00  1.00  1.00  1.00  1.00  1.00  0.97  0.63  0.41  0.23  0.20  0.38  0.20  0.23  0.41  0.63  0.97  1.00  1.00  1.00  1.00  1.00  1.00
1.00  1.00  1.00  1.00  1.00  1.00  1.00  0.97  0.63  0.41  0.23  0.20  0.38  0.20  0.23  0.41  0.63  0.97  1.00  1.00  1.00  1.00  1.00  1.00
1.00  1.00  1.00  1.00  1.00  1.00  1.00  0.97  0.63  0.41  0.23  0.20  0.38  0.20  0.23  0.41  0.63  0.97  1.00  1.00  1.00  1.00  1.00  1.00
1.00  1.00  1.00  1.00  1.00  1.00  1.00  0.97  0.63  0.41  0.23  0.20  0.38  0.20  0.23  0.41  0.63  0.97  1.00  1.00  1.00  1.00  1.00  1.00
1.00  1.00  1.00  1.00  1.00  1.00  1.00  0.97  0.63  0.41  0.23  0.20  0.38  0.20  0.23  0.41  0.63  0.97  1.00  1.00  1.00  1.00  1.00  1.00
1.00  1.00  1.00  1.00  1.00  1.00  1.00  0.97  0.63  0.41  0.23  0.20  0.38  0.20  0.23  0.41  0.63  0.97  1.00  1.00  1.00  1.00  1.00  1.00
1.00  1.00  1.00  1.00  1.00  1.00  1.00  0.97  0.63  0.41  0.23  0.20  0.38  0.20  0.23  0.41  0.63  0.97  1.00  1.00  1.00  1.00  1.00  1.00
1.00  1.00  1.00  1.00  1.00  1.00  1.00  0.97  0.63  0.41  0.23  0.20  0.38  0.20  0.23  0.41  0.63  0.97  1.00  1.00  1.00  1.00  1.00  1.00
1.00  1.00  1.00  1.00  1.00  1.00  1.00  0.97  0.63  0.41  0.23  0.20  0.38  0.20  0.23  0.41  0.63  0.97  1.00  1.00  1.00  1.00  1.00  1.00
1.00  1.00  1.00  1.00  1.00  1.00  1.00  0.97  0.63  0.41  0.23  0.20  0.38  0.20  0.23  0.41  0.63  0.97  1.00  1.00  1.00  1.00  1.00  1.00
1.00  1.00  1.00  1.00  1.00  1.00  1.00  0.97  0.63  0.41  0.23  0.20  0.38  0.20  0.23  0.41  0.63  0.97  1.00  1.00  1.00  1.00  1.00  1.00
$ ilon ilat of the cell. lon: 7.0, 36.8
4   10
$ sizes of the cell in km
    71.304       80.681       94.301      114.006      105.188       97.638       88.956       97.638      105.188      114.006       94.301       80.681       71.304       80.681       94.301      114.006      105.188       97.638       88.956       97.638      105.188      114.006       94.301       80.681
$ mean alpha: 0.692218693919
$ mean beta: 0.76058024997
$alpha by ik, ith
1.00  1.00  1.00  1.00  1.00  1.00  1.00  0.97  0.58  0.25  0.00  0.00  0.00  0.00  0.00  0.25  0.58  0.97  1.00  1.00  1.00  1.00  1.00  1.00
1.00  1.00  1.00  1.00  1.00  1.00  1.00  0.97  0.58  0.25  0.00  0.00  0.00  0.00  0.00  0.25  0.58  0.97  1.00  1.00  1.00  1.00  1.00  1.00
1.00  1.00  1.00  1.00  1.00  1.00  1.00  0.97  0.58  0.25  0.00  0.00  0.00  0.00  0.00  0.25  0.58  0.97  1.00  1.00  1.00  1.00  1.00  1.00
1.00  1.00  1.00  1.00  1.00  1.00  1.00  0.97  0.58  0.25  0.00  0.00  0.00  0.00  0.00  0.25  0.58  0.97  1.00  1.00  1.00  1.00  1.00  1.00
1.00  1.00  1.00  1.00  1.00  1.00  1.00  0.97  0.58  0.25  0.00  0.00  0.00  0.00  0.00  0.25  0.58  0.97  1.00  1.00  1.00  1.00  1.00  1.00
1.00  1.00  1.00  1.00  1.00  1.00  1.00  0.97  0.58  0.25  0.00  0.00  0.00  0.00  0.00  0.25  0.58  0.97  1.00  1.00  1.00  1.00  1.00  1.00
1.00  1.00  1.00  1.00  1.00  1.00  1.00  0.97  0.58  0.25  0.00  0.00  0.00  0.00  0.00  0.25  0.58  0.97  1.00  1.00  1.00  1.00  1.00  1.00
1.00  1.00  1.00  1.00  1.00  1.00  1.00  0.97  0.58  0.25  0.00  0.00  0.00  0.00  0.00  0.25  0.58  0.97  1.00  1.00  1.00  1.00  1.00  1.00
1.00  1.00  1.00  1.00  1.00  1.00  1.00  0.97  0.58  0.25  0.00  0.00  0.00  0.00  0.00  0.25  0.58  0.97  1.00  1.00  1.00  1.00  1.00  1.00
1.00  1.00  1.00  1.00  1.00  1.00  1.00  0.97  0.58  0.25  0.00  0.00  0.00  0.00  0.00  0.25  0.58  0.97  1.00  1.00  1.00  1.00  1.00  1.00
1.00  1.00  1.00  1.00  1.00  1.00  1.00  0.97  0.58  0.25  0.00  0.00  0.00  0.00  0.00  0.25  0.58  0.97  1.00  1.00  1.00  1.00  1.00  1.00
1.00  1.00  1.00  1.00  1.00  1.00  1.00  0.97  0.58  0.25  0.00  0.00  0.00  0.00  0.00  0.25  0.58  0.97  1.00  1.00  1.00  1.00  1.00  1.00
1.00  1.00  1.00  1.00  1.00  1.00  1.00  0.97  0.58  0.25  0.00  0.00  0.00  0.00  0.00  0.25  0.58  0.97  1.00  1.00  1.00  1.00  1.00  1.00
1.00  1.00  1.00  1.00  1.00  1.00  1.00  0.97  0.58  0.25  0.00  0.00  0.00  0.00  0.00  0.25  0.58  0.97  1.00  1.00  1.00  1.00  1.00  1.00
1.00  1.00  1.00  1.00  1.00  1.00  1.00  0.97  0.58  0.25  0.00  0.00  0.00  0.00  0.00  0.25  0.58  0.97  1.00  1.00  1.00  1.00  1.00  1.00
1.00  1.00  1.00  1.00  1.00  1.00  1.00  0.97  0.58  0.25  0.00  0.00  0.00  0.00  0.00  0.25  0.58  0.97  1.00  1.00  1.00  1.00  1.00  1.00
1.00  1.00  1.00  1.00  1.00  1.00  1.00  0.97  0.58  0.25  0.00  0.00  0.00  0.00  0.00  0.25  0.58  0.97  1.00  1.00  1.00  1.00  1.00  1.00
1.00  1.00  1.00  1.00  1.00  1.00  1.00  0.97  0.58  0.25  0.00  0.00  0.00  0.00  0.00  0.25  0.58  0.97  1.00  1.00  1.00  1.00  1.00  1.00
1.00  1.00  1.00  1.00  1.00  1.00  1.00  0.97  0.58  0.25  0.00  0.00  0.00  0.00  0.00  0.25  0.58  0.97  1.00  1.00  1.00  1.00  1.00  1.00
1.00  1.00  1.00  1.00  1.00  1.00  1.00  0.97  0.58  0.25  0.00  0.00  0.00  0.00  0.00  0.25  0.58  0.97  1.00  1.00  1.00  1.00  1.00  1.00
1.00  1.00  1.00  1.00  1.00  1.00  1.00  0.97  0.58  0.25  0.00  0.00  0.00  0.00  0.00  0.25  0.58  0.97  1.00  1.00  1.00  1.00  1.00  1.00
1.00  1.00  1.00  1.00  1.00  1.00  1.00  0.97  0.58  0.25  0.00  0.00  0.00  0.00  0.00  0.25  0.58  0.97  1.00  1.00  1.00  1.00  1.00  1.00
1.00  1.00  1.00  1.00  1.00  1.00  1.00  0.97  0.58  0.25  0.00  0.00  0.00  0.00  0.00  0.25  0.58  0.97  1.00  1.00  1.00  1.00  1.00  1.00
1.00  1.00  1.00  1.00  1.00  1.00  1.00  0.97  0.58  0.25  0.00  0.00  0.00  0.00  0.00  0.25  0.58  0.97  1.00  1.00  1.00  1.00  1.00  1.00
1.00  1.00  1.00  1.00  1.00  1.00  1.00  0.97  0.58  0.25  0.00  0.00  0.00  0.00  0.00  0.25  0.58  0.97  1.00  1.00  1.00  1.00  1.00  1.00
$beta by ik, ith
1.00  1.00  1.00  1.00  1.00  1.00  1.00  0.97  0.63  0.41  0.23  0.20  0.38  0.20  0.23  0.41  0.63  0.97  1.00  1.00  1.00  1.00  1.00  1.00
1.00  1.00  1.00  1.00  1.00  1.00  1.00  0.97  0.63  0.41  0.23  0.20  0.38  0.20  0.23  0.41  0.63  0.97  1.00  1.00  1.00  1.00  1.00  1.00
1.00  1.00  1.00  1.00  1.00  1.00  1.00  0.97  0.63  0.41  0.23  0.20  0.38  0.20  0.23  0.41  0.63  0.97  1.00  1.00  1.00  1.00  1.00  1.00
1.00  1.00  1.00  1.00  1.00  1.00  1.00  0.97  0.63  0.41  0.23  0.20  0.38  0.20  0.23  0.41  0.63  0.97  1.00  1.00  1.00  1.00  1.00  1.00
1.00  1.00  1.00  1.00  1.00  1.00  1.00  0.97  0.63  0.41  0.23  0.20  0.38  0.20  0.23  0.41  0.63  0.97  1.00  1.00  1.00  1.00  1.00  1.00
1.00  1.00  1.00  1.00  1.00  1.00  1.00  0.97  0.63  0.41  0.23  0.20  0.38  0.20  0.23  0.41  0.63  0.97  1.00  1.00  1.00  1.00  1.00  1.00
1.00  1.00  1.00  1.00  1.00  1.00  1.00  0.97  0.63  0.41  0.23  0.20  0.38  0.20  0.23  0.41  0.63  0.97  1.00  1.00  1.00  1.00  1.00  1.00
1.00  1.00  1.00  1.00  1.00  1.00  1.00  0.97  0.63  0.41  0.23  0.20  0.38  0.20  0.23  0.41  0.63  0.97  1.00  1.00  1.00  1.00  1.00  1.00
1.00  1.00  1.00  1.00  1.00  1.00  1.00  0.97  0.63  0.41  0.23  0.20  0.38  0.20  0.23  0.41  0.63  0.97  1.00  1.00  1.00  1.00  1.00  1.00
1.00  1.00  1.00  1.00  1.00  1.00  1.00  0.97  0.63  0.41  0.23  0.20  0.38  0.20  0.23  0.41  0.63  0.97  1.00  1.00  1.00  1.00  1.00  1.00
1.00  1.00  1.00  1.00  1.00  1.00  1.00  0.97  0.63  0.41  0.23  0.20  0.38  0.20  0.23  0.41  0.63  0.97  1.00  1.00  1.00  1.00  1.00  1.00
1.00  1.00  1.00  1.00  1.00  1.00  1.00  0.97  0.63  0.41  0.23  0.20  0.38  0.20  0.23  0.41  0.63  0.97  1.00  1.00  1.00  1.00  1.00  1.00
1.00  1.00  1.00  1.00  1.00  1.00  1.00  0.97  0.63  0.41  0.23  0.20  0.38  0.20  0.23  0.41  0.63  0.97  1.00  1.00  1.00  1.00  1.00  1.00
1.00  1.00  1.00  1.00  1.00  1.00  1.00  0.97  0.63  0.41  0.23  0.20  0.38  0.20  0.23  0.41  0.63  0.97  1.00  1.00  1.00  1.00  1.00  1.00
1.00  1.00  1.00  1.00  1.00  1.00  1.00  0.97  0.63  0.41  0.23  0.20  0.38  0.20  0.23  0.41  0.63  0.97  1.00  1.00  1.00  1.00  1.00  1.00
1.00  1.00  1.00  1.00  1.00  1.00  1.00  0.97  0.63  0.41  0.23  0.20  0.38  0.20  0.23  0.41  0.63  0.97  1.00  1.00  1.00  1.00  1.00  1.00
1.00  1.00  1.00  1.00  1.00  1.00  1.00  0.97  0.63  0.41  0.23  0.20  0.38  0.20  0.23  0.41  0.63  0.97  1.00  1.00  1.00  1.00  1.00  1.00
1.00  1.00  1.00  1.00  1.00  1.00  1.00  0.97  0.63  0.41  0.23  0.20  0.38  0.20  0.23  0.41  0.63  0.97  1.00  1.00  1.00  1.00  1.00  1.00
1.00  1.00  1.00  1.00  1.00  1.00  1.00  0.97  0.63  0.41  0.23  0.20  0.38  0.20  0.23  0.41  0.63  0.97  1.00  1.00  1.00  1.00  1.00  1.00
1.00  1.00  1.00  1.00  1.00  1.00  1.00  0.97  0.63  0.41  0.23  0.20  0.38  0.20  0.23  0.41  0.63  0.97  1.00  1.00  1.00  1.00  1.00  1.00
1.00  1.00  1.00  1.00  1.00  1.00  1.00  0.97  0.63  0.41  0.23  0.20  0.38  0.20  0.23  0.41  0.63  0.97  1.00  1.00  1.00  1.00  1.00  1.00
1.00  1.00  1.00  1.00  1.00  1.00  1.00  0.97  0.63  0.41  0.23  0.20  0.38  0.20  0.23  0.41  0.63  0.97  1.00  1.00  1.00  1.00  1.00  1.00
1.00  1.00  1.00  1.00  1.00  1.00  1.00  0.97  0.63  0.41  0.23  0.20  0.38  0.20  0.23  0.41  0.63  0.97  1.00  1.00  1.00  1.00  1.00  1.00
1.00  1.00  1.00  1.00  1.00  1.00  1.00  0.97  0.63  0.41  0.23  0.20  0.38  0.20  0.23  0.41  0.63  0.97  1.00  1.00  1.00  1.00  1.00  1.00
1.00  1.00  1.00  1.00  1.00  1.00  1.00  0.97  0.63  0.41  0.23  0.20  0.38  0.20  0.23  0.41  0.63  0.97  1.00  1.00  1.00  1.00  1.00  1.00
$ ilon ilat of the cell. lon: 7.0, 37.6
4   11
$ sizes of the cell in km
    70.555       79.918       93.650      113.539      104.994       97.593       88.956       97.593      104.994      113.539       93.650       79.918       70.555       79.918       93.650      113.539      104.994       97.593       88.956       97.593      104.994      113.539       93.650       79.918
$ mean alpha: 0.765567151047
$ mean beta: 0.825882773589
$alpha by ik, ith
1.00  1.00  1.00  1.00  1.00  1.00  1.00  0.97  0.58  0.25  0.00  0.00  0.00  0.32  0.55  0.75  0.95  1.00  1.00  1.00  1.00  1.00  1.00  1.00
1.00  1.00  1.00  1.00  1.00  1.00  1.00  0.97  0.58  0.25  0.00  0.00  0.00  0.32  0.55  0.75  0.95  1.00  1.00  1.00  1.00  1.00  1.00  1.00
1.00  1.00  1.00  1.00  1.00  1.00  1.00  0.97  0.58  0.25  0.00  0.00  0.00  0.32  0.55  0.75  0.95  1.00  1.00  1.00  1.00  1.00  1.00  1.00
1.00  1.00  1.00  1.00  1.00  1.00  1.00  0.97  0.58  0.25  0.00  0.00  0.00  0.32  0.55  0.75  0.95  1.00  1.00  1.00  1.00  1.00  1.00  1.00
1.00  1.00  1.00  1.00  1.00  1.00  1.00  0.97  0.58  0.25  0.00  0.00  0.00  0.32  0.55  0.75  0.95  1.00  1.00  1.00  1.00  1.00  1.00  1.00
1.00  1.00  1.00  1.00  1.00  1.00  1.00  0.97  0.58  0.25  0.00  0.00  0.00  0.32  0.55  0.75  0.95  1.00  1.00  1.00  1.00  1.00  1.00  1.00
1.00  1.00  1.00  1.00  1.00  1.00  1.00  0.97  0.58  0.25  0.00  0.00  0.00  0.32  0.55  0.75  0.95  1.00  1.00  1.00  1.00  1.00  1.00  1.00
1.00  1.00  1.00  1.00  1.00  1.00  1.00  0.97  0.58  0.25  0.00  0.00  0.00  0.32  0.55  0.75  0.95  1.00  1.00  1.00  1.00  1.00  1.00  1.00
1.00  1.00  1.00  1.00  1.00  1.00  1.00  0.97  0.58  0.25  0.00  0.00  0.00  0.32  0.55  0.75  0.95  1.00  1.00  1.00  1.00  1.00  1.00  1.00
1.00  1.00  1.00  1.00  1.00  1.00  1.00  0.97  0.58  0.25  0.00  0.00  0.00  0.32  0.55  0.75  0.95  1.00  1.00  1.00  1.00  1.00  1.00  1.00
1.00  1.00  1.00  1.00  1.00  1.00  1.00  0.97  0.58  0.25  0.00  0.00  0.00  0.32  0.55  0.75  0.95  1.00  1.00  1.00  1.00  1.00  1.00  1.00
1.00  1.00  1.00  1.00  1.00  1.00  1.00  0.97  0.58  0.25  0.00  0.00  0.00  0.32  0.55  0.75  0.95  1.00  1.00  1.00  1.00  1.00  1.00  1.00
1.00  1.00  1.00  1.00  1.00  1.00  1.00  0.97  0.58  0.25  0.00  0.00  0.00  0.32  0.55  0.75  0.95  1.00  1.00  1.00  1.00  1.00  1.00  1.00
1.00  1.00  1.00  1.00  1.00  1.00  1.00  0.97  0.58  0.25  0.00  0.00  0.00  0.32  0.55  0.75  0.95  1.00  1.00  1.00  1.00  1.00  1.00  1.00
1.00  1.00  1.00  1.00  1.00  1.00  1.00  0.97  0.58  0.25  0.00  0.00  0.00  0.32  0.55  0.75  0.95  1.00  1.00  1.00  1.00  1.00  1.00  1.00
1.00  1.00  1.00  1.00  1.00  1.00  1.00  0.97  0.58  0.25  0.00  0.00  0.00  0.32  0.55  0.75  0.95  1.00  1.00  1.00  1.00  1.00  1.00  1.00
1.00  1.00  1.00  1.00  1.00  1.00  1.00  0.97  0.58  0.25  0.00  0.00  0.00  0.32  0.55  0.75  0.95  1.00  1.00  1.00  1.00  1.00  1.00  1.00
1.00  1.00  1.00  1.00  1.00  1.00  1.00  0.97  0.58  0.25  0.00  0.00  0.00  0.32  0.55  0.75  0.95  1.00  1.00  1.00  1.00  1.00  1.00  1.00
1.00  1.00  1.00  1.00  1.00  1.00  1.00  0.97  0.58  0.25  0.00  0.00  0.00  0.32  0.55  0.75  0.95  1.00  1.00  1.00  1.00  1.00  1.00  1.00
1.00  1.00  1.00  1.00  1.00  1.00  1.00  0.97  0.58  0.25  0.00  0.00  0.00  0.32  0.55  0.75  0.95  1.00  1.00  1.00  1.00  1.00  1.00  1.00
1.00  1.00  1.00  1.00  1.00  1.00  1.00  0.97  0.58  0.25  0.00  0.00  0.00  0.32  0.55  0.75  0.95  1.00  1.00  1.00  1.00  1.00  1.00  1.00
1.00  1.00  1.00  1.00  1.00  1.00  1.00  0.97  0.58  0.25  0.00  0.00  0.00  0.32  0.55  0.75  0.95  1.00  1.00  1.00  1.00  1.00  1.00  1.00
[...]
0.00  0.00  0.00  0.19  0.51  0.87  1.00  1.00  1.00  1.00  1.00  1.00  1.00  1.00  1.00  1.00  1.00  1.00  1.00  0.87  0.51  0.19  0.00  0.00
0.00  0.00  0.00  0.19  0.51  0.87  1.00  1.00  1.00  1.00  1.00  1.00  1.00  1.00  1.00  1.00  1.00  1.00  1.00  0.87  0.51  0.19  0.00  0.00
0.00  0.00  0.00  0.19  0.51  0.87  1.00  1.00  1.00  1.00  1.00  1.00  1.00  1.00  1.00  1.00  1.00  1.00  1.00  0.87  0.51  0.19  0.00  0.00
0.00  0.00  0.00  0.19  0.51  0.87  1.00  1.00  1.00  1.00  1.00  1.00  1.00  1.00  1.00  1.00  1.00  1.00  1.00  0.87  0.51  0.19  0.00  0.00
0.00  0.00  0.00  0.19  0.51  0.87  1.00  1.00  1.00  1.00  1.00  1.00  1.00  1.00  1.00  1.00  1.00  1.00  1.00  0.87  0.51  0.19  0.00  0.00
0.00  0.00  0.00  0.19  0.51  0.87  1.00  1.00  1.00  1.00  1.00  1.00  1.00  1.00  1.00  1.00  1.00  1.00  1.00  0.87  0.51  0.19  0.00  0.00
0.00  0.00  0.00  0.19  0.51  0.87  1.00  1.00  1.00  1.00  1.00  1.00  1.00  1.00  1.00  1.00  1.00  1.00  1.00  0.87  0.51  0.19  0.00  0.00
0.00  0.00  0.00  0.19  0.51  0.87  1.00  1.00  1.00  1.00  1.00  1.00  1.00  1.00  1.00  1.00  1.00  1.00  1.00  0.87  0.51  0.19  0.00  0.00
$beta by ik, ith
0.50  0.27  0.31  0.42  0.60  0.87  1.00  1.00  1.00  1.00  1.00  1.00  1.00  1.00  1.00  1.00  1.00  1.00  1.00  0.87  0.60  0.42  0.30  0.27
0.50  0.27  0.31  0.42  0.60  0.87  1.00  1.00  1.00  1.00  1.00  1.00  1.00  1.00  1.00  1.00  1.00  1.00  1.00  0.87  0.60  0.42  0.30  0.27
0.50  0.27  0.31  0.42  0.60  0.87  1.00  1.00  1.00  1.00  1.00  1.00  1.00  1.00  1.00  1.00  1.00  1.00  1.00  0.87  0.60  0.42  0.30  0.27
0.50  0.27  0.31  0.42  0.60  0.87  1.00  1.00  1.00  1.00  1.00  1.00  1.00  1.00  1.00  1.00  1.00  1.00  1.00  0.87  0.60  0.42  0.30  0.27
0.50  0.27  0.31  0.42  0.60  0.87  1.00  1.00  1.00  1.00  1.00  1.00  1.00  1.00  1.00  1.00  1.00  1.00  1.00  0.87  0.60  0.42  0.30  0.27
0.50  0.27  0.31  0.42  0.60  0.87  1.00  1.00  1.00  1.00  1.00  1.00  1.00  1.00  1.00  1.00  1.00  1.00  1.00  0.87  0.60  0.42  0.30  0.27
0.50  0.27  0.31  0.42  0.60  0.87  1.00  1.00  1.00  1.00  1.00  1.00  1.00  1.00  1.00  1.00  1.00  1.00  1.00  0.87  0.60  0.42  0.30  0.27
0.50  0.27  0.31  0.42  0.60  0.87  1.00  1.00  1.00  1.00  1.00  1.00  1.00  1.00  1.00  1.00  1.00  1.00  1.00  0.87  0.60  0.42  0.30  0.27
0.50  0.27  0.31  0.42  0.60  0.87  1.00  1.00  1.00  1.00  1.00  1.00  1.00  1.00  1.00  1.00  1.00  1.00  1.00  0.87  0.60  0.42  0.30  0.27
0.50  0.27  0.31  0.42  0.60  0.87  1.00  1.00  1.00  1.00  1.00  1.00  1.00  1.00  1.00  1.00  1.00  1.00  1.00  0.87  0.60  0.42  0.30  0.27
0.50  0.27  0.31  0.42  0.60  0.87  1.00  1.00  1.00  1.00  1.00  1.00  1.00  1.00  1.00  1.00  1.00  1.00  1.00  0.87  0.60  0.42  0.30  0.27
0.50  0.27  0.31  0.42  0.60  0.87  1.00  1.00  1.00  1.00  1.00  1.00  1.00  1.00  1.00  1.00  1.00  1.00  1.00  0.87  0.60  0.42  0.30  0.27
0.50  0.27  0.31  0.42  0.60  0.87  1.00  1.00  1.00  1.00  1.00  1.00  1.00  1.00  1.00  1.00  1.00  1.00  1.00  0.87  0.60  0.42  0.30  0.27
0.50  0.27  0.31  0.42  0.60  0.87  1.00  1.00  1.00  1.00  1.00  1.00  1.00  1.00  1.00  1.00  1.00  1.00  1.00  0.87  0.60  0.42  0.30  0.27
0.50  0.27  0.31  0.42  0.60  0.87  1.00  1.00  1.00  1.00  1.00  1.00  1.00  1.00  1.00  1.00  1.00  1.00  1.00  0.87  0.60  0.42  0.30  0.27
0.50  0.27  0.31  0.42  0.60  0.87  1.00  1.00  1.00  1.00  1.00  1.00  1.00  1.00  1.00  1.00  1.00  1.00  1.00  0.87  0.60  0.42  0.30  0.27
0.50  0.27  0.31  0.42  0.60  0.87  1.00  1.00  1.00  1.00  1.00  1.00  1.00  1.00  1.00  1.00  1.00  1.00  1.00  0.87  0.60  0.42  0.30  0.27
0.50  0.27  0.31  0.42  0.60  0.87  1.00  1.00  1.00  1.00  1.00  1.00  1.00  1.00  1.00  1.00  1.00  1.00  1.00  0.87  0.60  0.42  0.30  0.27
0.50  0.27  0.31  0.42  0.60  0.87  1.00  1.00  1.00  1.00  1.00  1.00  1.00  1.00  1.00  1.00  1.00  1.00  1.00  0.87  0.60  0.42  0.30  0.27
0.50  0.27  0.31  0.42  0.60  0.87  1.00  1.00  1.00  1.00  1.00  1.00  1.00  1.00  1.00  1.00  1.00  1.00  1.00  0.87  0.60  0.42  0.30  0.27
0.50  0.27  0.31  0.42  0.60  0.87  1.00  1.00  1.00  1.00  1.00  1.00  1.00  1.00  1.00  1.00  1.00  1.00  1.00  0.87  0.60  0.42  0.30  0.27
0.50  0.27  0.31  0.42  0.60  0.87  1.00  1.00  1.00  1.00  1.00  1.00  1.00  1.00  1.00  1.00  1.00  1.00  1.00  0.87  0.60  0.42  0.30  0.27
0.50  0.27  0.31  0.42  0.60  0.87  1.00  1.00  1.00  1.00  1.00  1.00  1.00  1.00  1.00  1.00  1.00  1.00  1.00  0.87  0.60  0.42  0.30  0.27
0.50  0.27  0.31  0.42  0.60  0.87  1.00  1.00  1.00  1.00  1.00  1.00  1.00  1.00  1.00  1.00  1.00  1.00  1.00  0.87  0.60  0.42  0.30  0.27
0.50  0.27  0.31  0.42  0.60  0.87  1.00  1.00  1.00  1.00  1.00  1.00  1.00  1.00  1.00  1.00  1.00  1.00  1.00  0.87  0.60  0.42  0.30  0.27
$ ilon ilat of the cell. lon: 8.6, 37.6
6   11
$ sizes of the cell in km
    70.555       79.918       93.650      113.539      104.994       97.593       88.956       97.593      104.994      113.539       93.650       79.918       70.555       79.918       93.650      113.539      104.994       97.593       88.956       97.593      104.994      113.539       93.650       79.918
$ mean alpha: 0.746640200025
$ mean beta: 0.830362886191
$alpha by ik, ith
0.00  0.00  0.00  0.19  0.51  0.87  1.00  1.00  1.00  1.00  1.00  1.00  1.00  1.00  1.00  1.00  1.00  1.00  1.00  1.00  0.87  0.69  0.50  0.29
0.00  0.00  0.00  0.19  0.51  0.87  1.00  1.00  1.00  1.00  1.00  1.00  1.00  1.00  1.00  1.00  1.00  1.00  1.00  1.00  0.87  0.69  0.50  0.29
0.00  0.00  0.00  0.19  0.51  0.87  1.00  1.00  1.00  1.00  1.00  1.00  1.00  1.00  1.00  1.00  1.00  1.00  1.00  1.00  0.87  0.69  0.50  0.29
0.00  0.00  0.00  0.19  0.51  0.87  1.00  1.00  1.00  1.00  1.00  1.00  1.00  1.00  1.00  1.00  1.00  1.00  1.00  1.00  0.87  0.69  0.50  0.29
0.00  0.00  0.00  0.19  0.51  0.87  1.00  1.00  1.00  1.00  1.00  1.00  1.00  1.00  1.00  1.00  1.00  1.00  1.00  1.00  0.87  0.69  0.50  0.29
0.00  0.00  0.00  0.19  0.51  0.87  1.00  1.00  1.00  1.00  1.00  1.00  1.00  1.00  1.00  1.00  1.00  1.00  1.00  1.00  0.87  0.69  0.50  0.29
0.00  0.00  0.00  0.19  0.51  0.87  1.00  1.00  1.00  1.00  1.00  1.00  1.00  1.00  1.00  1.00  1.00  1.00  1.00  1.00  0.87  0.69  0.50  0.29
0.00  0.00  0.00  0.19  0.51  0.87  1.00  1.00  1.00  1.00  1.00  1.00  1.00  1.00  1.00  1.00  1.00  1.00  1.00  1.00  0.87  0.69  0.50  0.29
0.00  0.00  0.00  0.19  0.51  0.87  1.00  1.00  1.00  1.00  1.00  1.00  1.00  1.00  1.00  1.00  1.00  1.00  1.00  1.00  0.87  0.69  0.50  0.29
0.00  0.00  0.00  0.19  0.51  0.87  1.00  1.00  1.00  1.00  1.00  1.00  1.00  1.00  1.00  1.00  1.00  1.00  1.00  1.00  0.87  0.69  0.50  0.29
0.00  0.00  0.00  0.19  0.51  0.87  1.00  1.00  1.00  1.00  1.00  1.00  1.00  1.00  1.00  1.00  1.00  1.00  1.00  1.00  0.87  0.69  0.50  0.29
0.00  0.00  0.00  0.19  0.51  0.87  1.00  1.00  1.00  1.00  1.00  1.00  1.00  1.00  1.00  1.00  1.00  1.00  1.00  1.00  0.87  0.69  0.50  0.29
0.00  0.00  0.00  0.19  0.51  0.87  1.00  1.00  1.00  1.00  1.00  1.00  1.00  1.00  1.00  1.00  1.00  1.00  1.00  1.00  0.87  0.69  0.50  0.29
0.00  0.00  0.00  0.19  0.51  0.87  1.00  1.00  1.00  1.00  1.00  1.00  1.00  1.00  1.00  1.00  1.00  1.00  1.00  1.00  0.87  0.69  0.50  0.29
0.00  0.00  0.00  0.19  0.51  0.87  1.00  1.00  1.00  1.00  1.00  1.00  1.00  1.00  1.00  1.00  1.00  1.00  1.00  1.00  0.87  0.69  0.50  0.29
0.00  0.00  0.00  0.19  0.51  0.87  1.00  1.00  1.00  1.00  1.00  1.00  1.00  1.00  1.00  1.00  1.00  1.00  1.00  1.00  0.87  0.69  0.50  0.29
0.00  0.00  0.00  0.19  0.51  0.87  1.00  1.00  1.00  1.00  1.00  1.00  1.00  1.00  1.00  1.00  1.00  1.00  1.00  1.00  0.87  0.69  0.50  0.29
0.00  0.00  0.00  0.19  0.51  0.87  1.00  1.00  1.00  1.00  1.00  1.00  1.00  1.00  1.00  1.00  1.00  1.00  1.00  1.00  0.87  0.69  0.50  0.29
0.00  0.00  0.00  0.19  0.51  0.87  1.00  1.00  1.00  1.00  1.00  1.00  1.00  1.00  1.00  1.00  1.00  1.00  1.00  1.00  0.87  0.69  0.50  0.29
0.00  0.00  0.00  0.19  0.51  0.87  1.00  1.00  1.00  1.00  1.00  1.00  1.00  1.00  1.00  1.00  1.00  1.00  1.00  1.00  0.87  0.69  0.50  0.29
0.00  0.00  0.00  0.19  0.51  0.87  1.00  1.00  1.00  1.00  1.00  1.00  1.00  1.00  1.00  1.00  1.00  1.00  1.00  1.00  0.87  0.69  0.50  0.29
0.00  0.00  0.00  0.19  0.51  0.87  1.00  1.00  1.00  1.00  1.00  1.00  1.00  1.00  1.00  1.00  1.00  1.00  1.00  1.00  0.87  0.69  0.50  0.29
0.00  0.00  0.00  0.19  0.51  0.87  1.00  1.00  1.00  1.00  1.00  1.00  1.00  1.00  1.00  1.00  1.00  1.00  1.00  1.00  0.87  0.69  0.50  0.29
0.00  0.00  0.00  0.19  0.51  0.87  1.00  1.00  1.00  1.00  1.00  1.00  1.00  1.00  1.00  1.00  1.00  1.00  1.00  1.00  0.87  0.69  0.50  0.29
0.00  0.00  0.00  0.19  0.51  0.87  1.00  1.00  1.00  1.00  1.00  1.00  1.00  1.00  1.00  1.00  1.00  1.00  1.00  1.00  0.87  0.69  0.50  0.29
$beta by ik, ith
0.50  0.27  0.31  0.42  0.60  0.87  1.00  1.00  1.00  1.00  1.00  1.00  1.00  1.00  1.00  1.00  1.00  1.00  1.00  1.00  0.92  0.84  0.71  0.50
0.50  0.27  0.31  0.42  0.60  0.87  1.00  1.00  1.00  1.00  1.00  1.00  1.00  1.00  1.00  1.00  1.00  1.00  1.00  1.00  0.92  0.84  0.71  0.50
0.50  0.27  0.31  0.42  0.60  0.87  1.00  1.00  1.00  1.00  1.00  1.00  1.00  1.00  1.00  1.00  1.00  1.00  1.00  1.00  0.92  0.84  0.71  0.50
0.50  0.27  0.31  0.42  0.60  0.87  1.00  1.00  1.00  1.00  1.00  1.00  1.00  1.00  1.00  1.00  1.00  1.00  1.00  1.00  0.92  0.84  0.71  0.50
0.50  0.27  0.31  0.42  0.60  0.87  1.00  1.00  1.00  1.00  1.00  1.00  1.00  1.00  1.00  1.00  1.00  1.00  1.00  1.00  0.92  0.84  0.71  0.50
0.50  0.27  0.31  0.42  0.60  0.87  1.00  1.00  1.00  1.00  1.00  1.00  1.00  1.00  1.00  1.00  1.00  1.00  1.00  1.00  0.92  0.84  0.71  0.50
0.50  0.27  0.31  0.42  0.60  0.87  1.00  1.00  1.00  1.00  1.00  1.00  1.00  1.00  1.00  1.00  1.00  1.00  1.00  1.00  0.92  0.84  0.71  0.50
0.50  0.27  0.31  0.42  0.60  0.87  1.00  1.00  1.00  1.00  1.00  1.00  1.00  1.00  1.00  1.00  1.00  1.00  1.00  1.00  0.92  0.84  0.71  0.50
0.50  0.27  0.31  0.42  0.60  0.87  1.00  1.00  1.00  1.00  1.00  1.00  1.00  1.00  1.00  1.00  1.00  1.00  1.00  1.00  0.92  0.84  0.71  0.50
0.50  0.27  0.31  0.42  0.60  0.87  1.00  1.00  1.00  1.00  1.00  1.00  1.00  1.00  1.00  1.00  1.00  1.00  1.00  1.00  0.92  0.84  0.71  0.50
0.50  0.27  0.31  0.42  0.60  0.87  1.00  1.00  1.00  1.00  1.00  1.00  1.00  1.00  1.00  1.00  1.00  1.00  1.00  1.00  0.92  0.84  0.71  0.50
0.50  0.27  0.31  0.42  0.60  0.87  1.00  1.00  1.00  1.00  1.00  1.00  1.00  1.00  1.00  1.00  1.00  1.00  1.00  1.00  0.92  0.84  0.71  0.50
0.50  0.27  0.31  0.42  0.60  0.87  1.00  1.00  1.00  1.00  1.00  1.00  1.00  1.00  1.00  1.00  1.00  1.00  1.00  1.00  0.92  0.84  0.71  0.50
0.50  0.27  0.31  0.42  0.60  0.87  1.00  1.00  1.00  1.00  1.00  1.00  1.00  1.00  1.00  1.00  1.00  1.00  1.00  1.00  0.92  0.84  0.71  0.50
0.50  0.27  0.31  0.42  0.60  0.87  1.00  1.00  1.00  1.00  1.00  1.00  1.00  1.00  1.00  1.00  1.00  1.00  1.00  1.00  0.92  0.84  0.71  0.50
0.50  0.27  0.31  0.42  0.60  0.87  1.00  1.00  1.00  1.00  1.00  1.00  1.00  1.00  1.00  1.00  1.00  1.00  1.00  1.00  0.92  0.84  0.71  0.50
0.50  0.27  0.31  0.42  0.60  0.87  1.00  1.00  1.00  1.00  1.00  1.00  1.00  1.00  1.00  1.00  1.00  1.00  1.00  1.00  0.92  0.84  0.71  0.50
0.50  0.27  0.31  0.42  0.60  0.87  1.00  1.00  1.00  1.00  1.00  1.00  1.00  1.00  1.00  1.00  1.00  1.00  1.00  1.00  0.92  0.84  0.71  0.50
0.50  0.27  0.31  0.42  0.60  0.87  1.00  1.00  1.00  1.00  1.00  1.00  1.00  1.00  1.00  1.00  1.00  1.00  1.00  1.00  0.92  0.84  0.71  0.50
0.50  0.27  0.31  0.42  0.60  0.87  1.00  1.00  1.00  1.00  1.00  1.00  1.00  1.00  1.00  1.00  1.00  1.00  1.00  1.00  0.92  0.84  0.71  0.50
0.50  0.27  0.31  0.42  0.60  0.87  1.00  1.00  1.00  1.00  1.00  1.00  1.00  1.00  1.00  1.00  1.00  1.00  1.00  1.00  0.92  0.84  0.71  0.50
0.50  0.27  0.31  0.42  0.60  0.87  1.00  1.00  1.00  1.00  1.00  1.00  1.00  1.00  1.00  1.00  1.00  1.00  1.00  1.00  0.92  0.84  0.71  0.50
0.50  0.27  0.31  0.42  0.60  0.87  1.00  1.00  1.00  1.00  1.00  1.00  1.00  1.00  1.00  1.00  1.00  1.00  1.00  1.00  0.92  0.84  0.71  0.50
0.50  0.27  0.31  0.42  0.60  0.87  1.00  1.00  1.00  1.00  1.00  1.00  1.00  1.00  1.00  1.00  1.00  1.00  1.00  1.00  0.92  0.84  0.71  0.50
0.50  0.27  0.31  0.42  0.60  0.87  1.00  1.00  1.00  1.00  1.00  1.00  1.00  1.00  1.00  1.00  1.00  1.00  1.00  1.00  0.92  0.84  0.71  0.50
$ ilon ilat of the cell. lon: 8.6, 38.4
6   12
$ sizes of the cell in km
    69.791       79.143       92.989      113.066      104.798       97.548       88.956       97.548      104.798      113.066       92.989       79.143       69.791       79.143       92.989      113.066      104.798       97.548       88.956       97.548      104.798      113.066       92.989       79.143
$ mean alpha: 0.917155016753
$ mean beta: 0.931821897686
$alpha by ik, ith
1.00  0.68  0.46  0.44  0.56  0.87  1.00  1.00  1.00  1.00  1.00  1.00  1.00  1.00  1.00  1.00  1.00  1.00  1.00  1.00  1.00  1.00  1.00  1.00
1.00  0.68  0.46  0.44  0.56  0.87  1.00  1.00  1.00  1.00  1.00  1.00  1.00  1.00  1.00  1.00  1.00  1.00  1.00  1.00  1.00  1.00  1.00  1.00
1.00  0.68  0.46  0.44  0.56  0.87  1.00  1.00  1.00  1.00  1.00  1.00  1.00  1.00  1.00  1.00  1.00  1.00  1.00  1.00  1.00  1.00  1.00  1.00
1.00  0.68  0.46  0.44  0.56  0.87  1.00  1.00  1.00  1.00  1.00  1.00  1.00  1.00  1.00  1.00  1.00  1.00  1.00  1.00  1.00  1.00  1.00  1.00
1.00  0.68  0.46  0.44  0.56  0.87  1.00  1.00  1.00  1.00  1.00  1.00  1.00  1.00  1.00  1.00  1.00  1.00  1.00  1.00  1.00  1.00  1.00  1.00
1.00  0.68  0.46  0.44  0.56  0.87  1.00  1.00  1.00  1.00  1.00  1.00  1.00  1.00  1.00  1.00  1.00  1.00  1.00  1.00  1.00  1.00  1.00  1.00
1.00  0.68  0.46  0.44  0.56  0.87  1.00  1.00  1.00  1.00  1.00  1.00  1.00  1.00  1.00  1.00  1.00  1.00  1.00  1.00  1.00  1.00  1.00  1.00
1.00  0.68  0.46  0.44  0.56  0.87  1.00  1.00  1.00  1.00  1.00  1.00  1.00  1.00  1.00  1.00  1.00  1.00  1.00  1.00  1.00  1.00  1.00  1.00
1.00  0.68  0.46  0.44  0.56  0.87  1.00  1.00  1.00  1.00  1.00  1.00  1.00  1.00  1.00  1.00  1.00  1.00  1.00  1.00  1.00  1.00  1.00  1.00
1.00  0.68  0.46  0.44  0.56  0.87  1.00  1.00  1.00  1.00  1.00  1.00  1.00  1.00  1.00  1.00  1.00  1.00  1.00  1.00  1.00  1.00  1.00  1.00
1.00  0.68  0.46  0.44  0.56  0.87  1.00  1.00  1.00  1.00  1.00  1.00  1.00  1.00  1.00  1.00  1.00  1.00  1.00  1.00  1.00  1.00  1.00  1.00
1.00  0.68  0.46  0.44  0.56  0.87  1.00  1.00  1.00  1.00  1.00  1.00  1.00  1.00  1.00  1.00  1.00  1.00  1.00  1.00  1.00  1.00  1.00  1.00
1.00  0.68  0.46  0.44  0.56  0.87  1.00  1.00  1.00  1.00  1.00  1.00  1.00  1.00  1.00  1.00  1.00  1.00  1.00  1.00  1.00  1.00  1.00  1.00
1.00  0.68  0.46  0.44  0.56  0.87  1.00  1.00  1.00  1.00  1.00  1.00  1.00  1.00  1.00  1.00  1.00  1.00  1.00  1.00  1.00  1.00  1.00  1.00
1.00  0.68  0.46  0.44  0.56  0.87  1.00  1.00  1.00  1.00  1.00  1.00  1.00  1.00  1.00  1.00  1.00  1.00  1.00  1.00  1.00  1.00  1.00  1.00
1.00  0.68  0.46  0.44  0.56  0.87  1.00  1.00  1.00  1.00  1.00  1.00  1.00  1.00  1.00  1.00  1.00  1.00  1.00  1.00  1.00  1.00  1.00  1.00
1.00  0.68  0.46  0.44  0.56  0.87  1.00  1.00  1.00  1.00  1.00  1.00  1.00  1.00  1.00  1.00  1.00  1.00  1.00  1.00  1.00  1.00  1.00  1.00
1.00  0.68  0.46  0.44  0.56  0.87  1.00  1.00  1.00  1.00  1.00  1.00  1.00  1.00  1.00  1.00  1.00  1.00  1.00  1.00  1.00  1.00  1.00  1.00
1.00  0.68  0.46  0.44  0.56  0.87  1.00  1.00  1.00  1.00  1.00  1.00  1.00  1.00  1.00  1.00  1.00  1.00  1.00  1.00  1.00  1.00  1.00  1.00
1.00  0.68  0.46  0.44  0.56  0.87  1.00  1.00  1.00  1.00  1.00  1.00  1.00  1.00  1.00  1.00  1.00  1.00  1.00  1.00  1.00  1.00  1.00  1.00
1.00  0.68  0.46  0.44  0.56  0.87  1.00  1.00  1.00  1.00  1.00  1.00  1.00  1.00  1.00  1.00  1.00  1.00  1.00  1.00  1.00  1.00  1.00  1.00
1.00  0.68  0.46  0.44  0.56  0.87  1.00  1.00  1.00  1.00  1.00  1.00  1.00  1.00  1.00  1.00  1.00  1.00  1.00  1.00  1.00  1.00  1.00  1.00
1.00  0.68  0.46  0.44  0.56  0.87  1.00  1.00  1.00  1.00  1.00  1.00  1.00  1.00  1.00  1.00  1.00  1.00  1.00  1.00  1.00  1.00  1.00  1.00
1.00  0.68  0.46  0.44  0.56  0.87  1.00  1.00  1.00  1.00  1.00  1.00  1.00  1.00  1.00  1.00  1.00  1.00  1.00  1.00  1.00  1.00  1.00  1.00
1.00  0.68  0.46  0.44  0.56  0.87  1.00  1.00  1.00  1.00  1.00  1.00  1.00  1.00  1.00  1.00  1.00  1.00  1.00  1.00  1.00  1.00  1.00  1.00
$beta by ik, ith
1.00  0.75  0.57  0.54  0.62  0.87  1.00  1.00  1.00  1.00  1.00  1.00  1.00  1.00  1.00  1.00  1.00  1.00  1.00  1.00  1.00  1.00  1.00  1.00
1.00  0.75  0.57  0.54  0.62  0.87  1.00  1.00  1.00  1.00  1.00  1.00  1.00  1.00  1.00  1.00  1.00  1.00  1.00  1.00  1.00  1.00  1.00  1.00
1.00  0.75  0.57  0.54  0.62  0.87  1.00  1.00  1.00  1.00  1.00  1.00  1.00  1.00  1.00  1.00  1.00  1.00  1.00  1.00  1.00  1.00  1.00  1.00
1.00  0.75  0.57  0.54  0.62  0.87  1.00  1.00  1.00  1.00  1.00  1.00  1.00  1.00  1.00  1.00  1.00  1.00  1.00  1.00  1.00  1.00  1.00  1.00
1.00  0.75  0.57  0.54  0.62  0.87  1.00  1.00  1.00  1.00  1.00  1.00  1.00  1.00  1.00  1.00  1.00  1.00  1.00  1.00  1.00  1.00  1.00  1.00
1.00  0.75  0.57  0.54  0.62  0.87  1.00  1.00  1.00  1.00  1.00  1.00  1.00  1.00  1.00  1.00  1.00  1.00  1.00  1.00  1.00  1.00  1.00  1.00
1.00  0.75  0.57  0.54  0.62  0.87  1.00  1.00  1.00  1.00  1.00  1.00  1.00  1.00  1.00  1.00  1.00  1.00  1.00  1.00  1.00  1.00  1.00  1.00
1.00  0.75  0.57  0.54  0.62  0.87  1.00  1.00  1.00  1.00  1.00  1.00  1.00  1.00  1.00  1.00  1.00  1.00  1.00  1.00  1.00  1.00  1.00  1.00
1.00  0.75  0.57  0.54  0.62  0.87  1.00  1.00  1.00  1.00  1.00  1.00  1.00  1.00  1.00  1.00  1.00  1.00  1.00  1.00  1.00  1.00  1.00  1.00
1.00  0.75  0.57  0.54  0.62  0.87  1.00  1.00  1.00  1.00  1.00  1.00  1.00  1.00  1.00  1.00  1.00  1.00  1.00  1.00  1.00  1.00  1.00  1.00
1.00  0.75  0.57  0.54  0.62  0.87  1.00  1.00  1.00  1.00  1.00  1.00  1.00  1.00  1.00  1.00  1.00  1.00  1.00  1.00  1.00  1.00  1.00  1.00
1.00  0.75  0.57  0.54  0.62  0.87  1.00  1.00  1.00  1.00  1.00  1.00  1.00  1.00  1.00  1.00  1.00  1.00  1.00  1.00  1.00  1.00  1.00  1.00
1.00  0.75  0.57  0.54  0.62  0.87  1.00  1.00  1.00  1.00  1.00  1.00  1.00  1.00  1.00  1.00  1.00  1.00  1.00  1.00  1.00  1.00  1.00  1.00
1.00  0.75  0.57  0.54  0.62  0.87  1.00  1.00  1.00  1.00  1.00  1.00  1.00  1.00  1.00  1.00  1.00  1.00  1.00  1.00  1.00  1.00  1.00  1.00
1.00  0.75  0.57  0.54  0.62  0.87  1.00  1.00  1.00  1.00  1.00  1.00  1.00  1.00  1.00  1.00  1.00  1.00  1.00  1.00  1.00  1.00  1.00  1.00
1.00  0.75  0.57  0.54  0.62  0.87  1.00  1.00  1.00  1.00  1.00  1.00  1.00  1.00  1.00  1.00  1.00  1.00  1.00  1.00  1.00  1.00  1.00  1.00
1.00  0.75  0.57  0.54  0.62  0.87  1.00  1.00  1.00  1.00  1.00  1.00  1.00  1.00  1.00  1.00  1.00  1.00  1.00  1.00  1.00  1.00  1.00  1.00
1.00  0.75  0.57  0.54  0.62  0.87  1.00  1.00  1.00  1.00  1.00  1.00  1.00  1.00  1.00  1.00  1.00  1.00  1.00  1.00  1.00  1.00  1.00  1.00
1.00  0.75  0.57  0.54  0.62  0.87  1.00  1.00  1.00  1.00  1.00  1.00  1.00  1.00  1.00  1.00  1.00  1.00  1.00  1.00  1.00  1.00  1.00  1.00
1.00  0.75  0.57  0.54  0.62  0.87  1.00  1.00  1.00  1.00  1.00  1.00  1.00  1.00  1.00  1.00  1.00  1.00  1.00  1.00  1.00  1.00  1.00  1.00
1.00  0.75  0.57  0.54  0.62  0.87  1.00  1.00  1.00  1.00  1.00  1.00  1.00  1.00  1.00  1.00  1.00  1.00  1.00  1.00  1.00  1.00  1.00  1.00
1.00  0.75  0.57  0.54  0.62  0.87  1.00  1.00  1.00  1.00  1.00  1.00  1.00  1.00  1.00  1.00  1.00  1.00  1.00  1.00  1.00  1.00  1.00  1.00
1.00  0.75  0.57  0.54  0.62  0.87  1.00  1.00  1.00  1.00  1.00  1.00  1.00  1.00  1.00  1.00  1.00  1.00  1.00  1.00  1.00  1.00  1.00  1.00
1.00  0.75  0.57  0.54  0.62  0.87  1.00  1.00  1.00  1.00  1.00  1.00  1.00  1.00  1.00  1.00  1.00  1.00  1.00  1.00  1.00  1.00  1.00  1.00
1.00  0.75  0.57  0.54  0.62  0.87  1.00  1.00  1.00  1.00  1.00  1.00  1.00  1.00  1.00  1.00  1.00  1.00  1.00  1.00  1.00  1.00  1.00  1.00
