'WAVEWATCH III SPECTRA'     3    24     1 'TEST 3 SWELL ONLY                  '
 0.125  0.1375  0.15125 
  0.157E+01  0.131E+01  0.105E+01  0.785E+00  0.524E+00  0.262E+00  0.000E+00
  0.602E+01  0.576E+01  0.550E+01  0.524E+01  0.497E+01  0.471E+01  0.445E+01
  0.419E+01  0.393E+01  0.367E+01  0.340E+01  0.314E+01  0.288E+01  0.262E+01
  0.236E+01  0.209E+01  0.183E+01
20000101 0100000
'point3    '  34.00    4.20   500.0   2.0   0.0   0.0   0.0
  0.00       0.00       0.00       0.00       0.00       0.00       0.00
  0.00       0.00       8.00      12.00       8.00       0.00       0.00
  0.00       0.00       0.00       0.00       0.00       0.00       0.00
  0.00       0.00       0.00       0.00       0.00       0.00       0.00
  0.00       0.00       0.00       0.00       0.00       0.00       0.00
  0.00       0.00       0.00       0.00       0.00       0.00       0.00 
  0.00       0.00       0.00       0.00       0.00       0.00       0.00
  0.00       0.00       0.00       0.00       0.00       0.00       0.00
  0.00       0.00       0.00       0.00       0.00       0.00       0.00
  0.00       0.00       0.00       0.00       0.00       0.00       0.00
  0.00       0.00
