$WAVEWATCH III LOCAL OBSTRUCTIONS
97
$ ilon ilat of the cell. lon: -96.0, 27.5
57   66
$ sizes of the cell in km
   148.148      166.059      189.617      223.086      201.153      183.990      166.792      183.990      201.153      223.086      189.617      166.059      148.148      166.059      189.617      223.086      201.153      183.990      166.792      183.990      201.153      223.086      189.617      166.059      148.148
$ mean alpha: 0.933333190918
$ mean beta: 0.958047034601
$alpha by ik, ith
0.93  0.94  0.96  0.97  0.95  0.93  0.91  0.91  0.92  0.92  0.93  0.93  0.93  0.94  0.96  0.97  0.95  0.93  0.91  0.91  0.92  0.92  0.93  0.93  0.93
0.93  0.94  0.96  0.97  0.95  0.93  0.91  0.91  0.92  0.92  0.93  0.93  0.93  0.94  0.96  0.97  0.95  0.93  0.91  0.91  0.92  0.92  0.93  0.93  0.93
0.93  0.94  0.96  0.97  0.95  0.93  0.91  0.91  0.92  0.92  0.93  0.93  0.93  0.94  0.96  0.97  0.95  0.93  0.91  0.91  0.92  0.92  0.93  0.93  0.93
0.93  0.94  0.96  0.97  0.95  0.93  0.91  0.91  0.92  0.92  0.93  0.93  0.93  0.94  0.96  0.97  0.95  0.93  0.91  0.91  0.92  0.92  0.93  0.93  0.93
0.93  0.94  0.96  0.97  0.95  0.93  0.91  0.91  0.92  0.92  0.93  0.93  0.93  0.94  0.96  0.97  0.95  0.93  0.91  0.91  0.92  0.92  0.93  0.93  0.93
0.93  0.94  0.96  0.97  0.95  0.93  0.91  0.91  0.92  0.92  0.93  0.93  0.93  0.94  0.96  0.97  0.95  0.93  0.91  0.91  0.92  0.92  0.93  0.93  0.93
0.93  0.94  0.96  0.97  0.95  0.93  0.91  0.91  0.92  0.92  0.93  0.93  0.93  0.94  0.96  0.97  0.95  0.93  0.91  0.91  0.92  0.92  0.93  0.93  0.93
0.93  0.94  0.96  0.97  0.95  0.93  0.91  0.91  0.92  0.92  0.93  0.93  0.93  0.94  0.96  0.97  0.95  0.93  0.91  0.91  0.92  0.92  0.93  0.93  0.93
0.93  0.94  0.96  0.97  0.95  0.93  0.91  0.91  0.92  0.92  0.93  0.93  0.93  0.94  0.96  0.97  0.95  0.93  0.91  0.91  0.92  0.92  0.93  0.93  0.93
0.93  0.94  0.96  0.97  0.95  0.93  0.91  0.91  0.92  0.92  0.93  0.93  0.93  0.94  0.96  0.97  0.95  0.93  0.91  0.91  0.92  0.92  0.93  0.93  0.93
0.93  0.94  0.96  0.97  0.95  0.93  0.91  0.91  0.92  0.92  0.93  0.93  0.93  0.94  0.96  0.97  0.95  0.93  0.91  0.91  0.92  0.92  0.93  0.93  0.93
0.93  0.94  0.96  0.97  0.95  0.93  0.91  0.91  0.92  0.92  0.93  0.93  0.93  0.94  0.96  0.97  0.95  0.93  0.91  0.91  0.92  0.92  0.93  0.93  0.93
0.93  0.94  0.96  0.97  0.95  0.93  0.91  0.91  0.92  0.92  0.93  0.93  0.93  0.94  0.96  0.97  0.95  0.93  0.91  0.91  0.92  0.92  0.93  0.93  0.93
0.93  0.94  0.96  0.97  0.95  0.93  0.91  0.91  0.92  0.92  0.93  0.93  0.93  0.94  0.96  0.97  0.95  0.93  0.91  0.91  0.92  0.92  0.93  0.93  0.93
0.93  0.94  0.96  0.97  0.95  0.93  0.91  0.91  0.92  0.92  0.93  0.93  0.93  0.94  0.96  0.97  0.95  0.93  0.91  0.91  0.92  0.92  0.93  0.93  0.93
0.93  0.94  0.96  0.97  0.95  0.93  0.91  0.91  0.92  0.92  0.93  0.93  0.93  0.94  0.96  0.97  0.95  0.93  0.91  0.91  0.92  0.92  0.93  0.93  0.93
0.93  0.94  0.96  0.97  0.95  0.93  0.91  0.91  0.92  0.92  0.93  0.93  0.93  0.94  0.96  0.97  0.95  0.93  0.91  0.91  0.92  0.92  0.93  0.93  0.93
0.93  0.94  0.96  0.97  0.95  0.93  0.91  0.91  0.92  0.92  0.93  0.93  0.93  0.94  0.96  0.97  0.95  0.93  0.91  0.91  0.92  0.92  0.93  0.93  0.93
0.93  0.94  0.96  0.97  0.95  0.93  0.91  0.91  0.92  0.92  0.93  0.93  0.93  0.94  0.96  0.97  0.95  0.93  0.91  0.91  0.92  0.92  0.93  0.93  0.93
0.93  0.94  0.96  0.97  0.95  0.93  0.91  0.91  0.92  0.92  0.93  0.93  0.93  0.94  0.96  0.97  0.95  0.93  0.91  0.91  0.92  0.92  0.93  0.93  0.93
0.93  0.94  0.96  0.97  0.95  0.93  0.91  0.91  0.92  0.92  0.93  0.93  0.93  0.94  0.96  0.97  0.95  0.93  0.91  0.91  0.92  0.92  0.93  0.93  0.93
0.93  0.94  0.96  0.97  0.95  0.93  0.91  0.91  0.92  0.92  0.93  0.93  0.93  0.94  0.96  0.97  0.95  0.93  0.91  0.91  0.92  0.92  0.93  0.93  0.93
0.93  0.94  0.96  0.97  0.95  0.93  0.91  0.91  0.92  0.92  0.93  0.93  0.93  0.94  0.96  0.97  0.95  0.93  0.91  0.91  0.92  0.92  0.93  0.93  0.93
0.93  0.94  0.96  0.97  0.95  0.93  0.91  0.91  0.92  0.92  0.93  0.93  0.93  0.94  0.96  0.97  0.95  0.93  0.91  0.91  0.92  0.92  0.93  0.93  0.93
0.93  0.94  0.96  0.97  0.95  0.93  0.91  0.91  0.92  0.92  0.93  0.93  0.93  0.94  0.96  0.97  0.95  0.93  0.91  0.91  0.92  0.92  0.93  0.93  0.93
$beta by ik, ith
0.93  0.95  0.96  0.98  0.98  0.99  0.99  0.99  0.99  0.99  0.99  0.99  0.99  0.99  0.98  0.98  0.96  0.93  0.91  0.91  0.90  0.90  0.91  0.92  0.93
0.93  0.95  0.96  0.98  0.98  0.99  0.99  0.99  0.99  0.99  0.99  0.99  0.99  0.99  0.98  0.98  0.96  0.93  0.91  0.91  0.90  0.90  0.91  0.92  0.93
0.93  0.95  0.96  0.98  0.98  0.99  0.99  0.99  0.99  0.99  0.99  0.99  0.99  0.99  0.98  0.98  0.96  0.93  0.91  0.91  0.90  0.90  0.91  0.92  0.93
0.93  0.95  0.96  0.98  0.98  0.99  0.99  0.99  0.99  0.99  0.99  0.99  0.99  0.99  0.98  0.98  0.96  0.93  0.91  0.91  0.90  0.90  0.91  0.92  0.93
0.93  0.95  0.96  0.98  0.98  0.99  0.99  0.99  0.99  0.99  0.99  0.99  0.99  0.99  0.98  0.98  0.96  0.93  0.91  0.91  0.90  0.90  0.91  0.92  0.93
0.93  0.95  0.96  0.98  0.98  0.99  0.99  0.99  0.99  0.99  0.99  0.99  0.99  0.99  0.98  0.98  0.96  0.93  0.91  0.91  0.90  0.90  0.91  0.92  0.93
0.93  0.95  0.96  0.98  0.98  0.99  0.99  0.99  0.99  0.99  0.99  0.99  0.99  0.99  0.98  0.98  0.96  0.93  0.91  0.91  0.90  0.90  0.91  0.92  0.93
0.93  0.95  0.96  0.98  0.98  0.99  0.99  0.99  0.99  0.99  0.99  0.99  0.99  0.99  0.98  0.98  0.96  0.93  0.91  0.91  0.90  0.90  0.91  0.92  0.93
0.93  0.95  0.96  0.98  0.98  0.99  0.99  0.99  0.99  0.99  0.99  0.99  0.99  0.99  0.98  0.98  0.96  0.93  0.91  0.91  0.90  0.90  0.91  0.92  0.93
0.93  0.95  0.96  0.98  0.98  0.99  0.99  0.99  0.99  0.99  0.99  0.99  0.99  0.99  0.98  0.98  0.96  0.93  0.91  0.91  0.90  0.90  0.91  0.92  0.93
0.93  0.95  0.96  0.98  0.98  0.99  0.99  0.99  0.99  0.99  0.99  0.99  0.99  0.99  0.98  0.98  0.96  0.93  0.91  0.91  0.90  0.90  0.91  0.92  0.93
0.93  0.95  0.96  0.98  0.98  0.99  0.99  0.99  0.99  0.99  0.99  0.99  0.99  0.99  0.98  0.98  0.96  0.93  0.91  0.91  0.90  0.90  0.91  0.92  0.93
0.93  0.95  0.96  0.98  0.98  0.99  0.99  0.99  0.99  0.99  0.99  0.99  0.99  0.99  0.98  0.98  0.96  0.93  0.91  0.91  0.90  0.90  0.91  0.92  0.93
0.93  0.95  0.96  0.98  0.98  0.99  0.99  0.99  0.99  0.99  0.99  0.99  0.99  0.99  0.98  0.98  0.96  0.93  0.91  0.91  0.90  0.90  0.91  0.92  0.93
0.93  0.95  0.96  0.98  0.98  0.99  0.99  0.99  0.99  0.99  0.99  0.99  0.99  0.99  0.98  0.98  0.96  0.93  0.91  0.91  0.90  0.90  0.91  0.92  0.93
0.93  0.95  0.96  0.98  0.98  0.99  0.99  0.99  0.99  0.99  0.99  0.99  0.99  0.99  0.98  0.98  0.96  0.93  0.91  0.91  0.90  0.90  0.91  0.92  0.93
0.93  0.95  0.96  0.98  0.98  0.99  0.99  0.99  0.99  0.99  0.99  0.99  0.99  0.99  0.98  0.98  0.96  0.93  0.91  0.91  0.90  0.90  0.91  0.92  0.93
0.93  0.95  0.96  0.98  0.98  0.99  0.99  0.99  0.99  0.99  0.99  0.99  0.99  0.99  0.98  0.98  0.96  0.93  0.91  0.91  0.90  0.90  0.91  0.92  0.93
0.93  0.95  0.96  0.98  0.98  0.99  0.99  0.99  0.99  0.99  0.99  0.99  0.99  0.99  0.98  0.98  0.96  0.93  0.91  0.91  0.90  0.90  0.91  0.92  0.93
0.93  0.95  0.96  0.98  0.98  0.99  0.99  0.99  0.99  0.99  0.99  0.99  0.99  0.99  0.98  0.98  0.96  0.93  0.91  0.91  0.90  0.90  0.91  0.92  0.93
0.93  0.95  0.96  0.98  0.98  0.99  0.99  0.99  0.99  0.99  0.99  0.99  0.99  0.99  0.98  0.98  0.96  0.93  0.91  0.91  0.90  0.90  0.91  0.92  0.93
0.93  0.95  0.96  0.98  0.98  0.99  0.99  0.99  0.99  0.99  0.99  0.99  0.99  0.99  0.98  0.98  0.96  0.93  0.91  0.91  0.90  0.90  0.91  0.92  0.93
0.93  0.95  0.96  0.98  0.98  0.99  0.99  0.99  0.99  0.99  0.99  0.99  0.99  0.99  0.98  0.98  0.96  0.93  0.91  0.91  0.90  0.90  0.91  0.92  0.93
0.93  0.95  0.96  0.98  0.98  0.99  0.99  0.99  0.99  0.99  0.99  0.99  0.99  0.99  0.98  0.98  0.96  0.93  0.91  0.91  0.90  0.90  0.91  0.92  0.93
0.93  0.95  0.96  0.98  0.98  0.99  0.99  0.99  0.99  0.99  0.99  0.99  0.99  0.99  0.98  0.98  0.96  0.93  0.91  0.91  0.90  0.90  0.91  0.92  0.93
$ ilon ilat of the cell. lon: -93.0, 14.0
59   57
$ sizes of the cell in km
   161.943      180.283      202.190      232.476      205.194      184.948      166.792      184.948      205.194      232.476      202.190      180.283      161.943      180.283      202.190      232.476      205.194      184.948      166.792      184.948      205.194      232.476      202.190      180.283      161.943
$ mean alpha: 0.891111058553
$ mean beta: 0.935057833911
$alpha by ik, ith
0.88  0.88  0.88  0.88  0.88  0.88  0.88  0.90  0.91  0.93  0.91  0.90  0.88  0.88  0.88  0.88  0.88  0.88  0.88  0.90  0.91  0.93  0.91  0.90  0.88
0.88  0.88  0.88  0.88  0.88  0.88  0.88  0.90  0.91  0.93  0.91  0.90  0.88  0.88  0.88  0.88  0.88  0.88  0.88  0.90  0.91  0.93  0.91  0.90  0.88
0.88  0.88  0.88  0.88  0.88  0.88  0.88  0.90  0.91  0.93  0.91  0.90  0.88  0.88  0.88  0.88  0.88  0.88  0.88  0.90  0.91  0.93  0.91  0.90  0.88
0.88  0.88  0.88  0.88  0.88  0.88  0.88  0.90  0.91  0.93  0.91  0.90  0.88  0.88  0.88  0.88  0.88  0.88  0.88  0.90  0.91  0.93  0.91  0.90  0.88
0.88  0.88  0.88  0.88  0.88  0.88  0.88  0.90  0.91  0.93  0.91  0.90  0.88  0.88  0.88  0.88  0.88  0.88  0.88  0.90  0.91  0.93  0.91  0.90  0.88
0.88  0.88  0.88  0.88  0.88  0.88  0.88  0.90  0.91  0.93  0.91  0.90  0.88  0.88  0.88  0.88  0.88  0.88  0.88  0.90  0.91  0.93  0.91  0.90  0.88
0.88  0.88  0.88  0.88  0.88  0.88  0.88  0.90  0.91  0.93  0.91  0.90  0.88  0.88  0.88  0.88  0.88  0.88  0.88  0.90  0.91  0.93  0.91  0.90  0.88
0.88  0.88  0.88  0.88  0.88  0.88  0.88  0.90  0.91  0.93  0.91  0.90  0.88  0.88  0.88  0.88  0.88  0.88  0.88  0.90  0.91  0.93  0.91  0.90  0.88
0.88  0.88  0.88  0.88  0.88  0.88  0.88  0.90  0.91  0.93  0.91  0.90  0.88  0.88  0.88  0.88  0.88  0.88  0.88  0.90  0.91  0.93  0.91  0.90  0.88
0.88  0.88  0.88  0.88  0.88  0.88  0.88  0.90  0.91  0.93  0.91  0.90  0.88  0.88  0.88  0.88  0.88  0.88  0.88  0.90  0.91  0.93  0.91  0.90  0.88
0.88  0.88  0.88  0.88  0.88  0.88  0.88  0.90  0.91  0.93  0.91  0.90  0.88  0.88  0.88  0.88  0.88  0.88  0.88  0.90  0.91  0.93  0.91  0.90  0.88
0.88  0.88  0.88  0.88  0.88  0.88  0.88  0.90  0.91  0.93  0.91  0.90  0.88  0.88  0.88  0.88  0.88  0.88  0.88  0.90  0.91  0.93  0.91  0.90  0.88
0.88  0.88  0.88  0.88  0.88  0.88  0.88  0.90  0.91  0.93  0.91  0.90  0.88  0.88  0.88  0.88  0.88  0.88  0.88  0.90  0.91  0.93  0.91  0.90  0.88
0.88  0.88  0.88  0.88  0.88  0.88  0.88  0.90  0.91  0.93  0.91  0.90  0.88  0.88  0.88  0.88  0.88  0.88  0.88  0.90  0.91  0.93  0.91  0.90  0.88
0.88  0.88  0.88  0.88  0.88  0.88  0.88  0.90  0.91  0.93  0.91  0.90  0.88  0.88  0.88  0.88  0.88  0.88  0.88  0.90  0.91  0.93  0.91  0.90  0.88
0.88  0.88  0.88  0.88  0.88  0.88  0.88  0.90  0.91  0.93  0.91  0.90  0.88  0.88  0.88  0.88  0.88  0.88  0.88  0.90  0.91  0.93  0.91  0.90  0.88
0.88  0.88  0.88  0.88  0.88  0.88  0.88  0.90  0.91  0.93  0.91  0.90  0.88  0.88  0.88  0.88  0.88  0.88  0.88  0.90  0.91  0.93  0.91  0.90  0.88
0.88  0.88  0.88  0.88  0.88  0.88  0.88  0.90  0.91  0.93  0.91  0.90  0.88  0.88  0.88  0.88  0.88  0.88  0.88  0.90  0.91  0.93  0.91  0.90  0.88
0.88  0.88  0.88  0.88  0.88  0.88  0.88  0.90  0.91  0.93  0.91  0.90  0.88  0.88  0.88  0.88  0.88  0.88  0.88  0.90  0.91  0.93  0.91  0.90  0.88
0.88  0.88  0.88  0.88  0.88  0.88  0.88  0.90  0.91  0.93  0.91  0.90  0.88  0.88  0.88  0.88  0.88  0.88  0.88  0.90  0.91  0.93  0.91  0.90  0.88
0.88  0.88  0.88  0.88  0.88  0.88  0.88  0.90  0.91  0.93  0.91  0.90  0.88  0.88  0.88  0.88  0.88  0.88  0.88  0.90  0.91  0.93  0.91  0.90  0.88
0.88  0.88  0.88  0.88  0.88  0.88  0.88  0.90  0.91  0.93  0.91  0.90  0.88  0.88  0.88  0.88  0.88  0.88  0.88  0.90  0.91  0.93  0.91  0.90  0.88
0.88  0.88  0.88  0.88  0.88  0.88  0.88  0.90  0.91  0.93  0.91  0.90  0.88  0.88  0.88  0.88  0.88  0.88  0.88  0.90  0.91  0.93  0.91  0.90  0.88
0.88  0.88  0.88  0.88  0.88  0.88  0.88  0.90  0.91  0.93  0.91  0.90  0.88  0.88  0.88  0.88  0.88  0.88  0.88  0.90  0.91  0.93  0.91  0.90  0.88
0.88  0.88  0.88  0.88  0.88  0.88  0.88  0.90  0.91  0.93  0.91  0.90  0.88  0.88  0.88  0.88  0.88  0.88  0.88  0.90  0.91  0.93  0.91  0.90  0.88
$beta by ik, ith
0.99  0.98  0.98  0.98  0.98  0.98  0.99  0.98  0.97  0.96  0.93  0.90  0.88  0.87  0.85  0.84  0.85  0.87  0.88  0.90  0.93  0.96  0.97  0.98  0.99
0.99  0.98  0.98  0.98  0.98  0.98  0.99  0.98  0.97  0.96  0.93  0.90  0.88  0.87  0.85  0.84  0.85  0.87  0.88  0.90  0.93  0.96  0.97  0.98  0.99
0.99  0.98  0.98  0.98  0.98  0.98  0.99  0.98  0.97  0.96  0.93  0.90  0.88  0.87  0.85  0.84  0.85  0.87  0.88  0.90  0.93  0.96  0.97  0.98  0.99
0.99  0.98  0.98  0.98  0.98  0.98  0.99  0.98  0.97  0.96  0.93  0.90  0.88  0.87  0.85  0.84  0.85  0.87  0.88  0.90  0.93  0.96  0.97  0.98  0.99
0.99  0.98  0.98  0.98  0.98  0.98  0.99  0.98  0.97  0.96  0.93  0.90  0.88  0.87  0.85  0.84  0.85  0.87  0.88  0.90  0.93  0.96  0.97  0.98  0.99
0.99  0.98  0.98  0.98  0.98  0.98  0.99  0.98  0.97  0.96  0.93  0.90  0.88  0.87  0.85  0.84  0.85  0.87  0.88  0.90  0.93  0.96  0.97  0.98  0.99
0.99  0.98  0.98  0.98  0.98  0.98  0.99  0.98  0.97  0.96  0.93  0.90  0.88  0.87  0.85  0.84  0.85  0.87  0.88  0.90  0.93  0.96  0.97  0.98  0.99
0.99  0.98  0.98  0.98  0.98  0.98  0.99  0.98  0.97  0.96  0.93  0.90  0.88  0.87  0.85  0.84  0.85  0.87  0.88  0.90  0.93  0.96  0.97  0.98  0.99
0.99  0.98  0.98  0.98  0.98  0.98  0.99  0.98  0.97  0.96  0.93  0.90  0.88  0.87  0.85  0.84  0.85  0.87  0.88  0.90  0.93  0.96  0.97  0.98  0.99
0.99  0.98  0.98  0.98  0.98  0.98  0.99  0.98  0.97  0.96  0.93  0.90  0.88  0.87  0.85  0.84  0.85  0.87  0.88  0.90  0.93  0.96  0.97  0.98  0.99
0.99  0.98  0.98  0.98  0.98  0.98  0.99  0.98  0.97  0.96  0.93  0.90  0.88  0.87  0.85  0.84  0.85  0.87  0.88  0.90  0.93  0.96  0.97  0.98  0.99
0.99  0.98  0.98  0.98  0.98  0.98  0.99  0.98  0.97  0.96  0.93  0.90  0.88  0.87  0.85  0.84  0.85  0.87  0.88  0.90  0.93  0.96  0.97  0.98  0.99
0.99  0.98  0.98  0.98  0.98  0.98  0.99  0.98  0.97  0.96  0.93  0.90  0.88  0.87  0.85  0.84  0.85  0.87  0.88  0.90  0.93  0.96  0.97  0.98  0.99
0.99  0.98  0.98  0.98  0.98  0.98  0.99  0.98  0.97  0.96  0.93  0.90  0.88  0.87  0.85  0.84  0.85  0.87  0.88  0.90  0.93  0.96  0.97  0.98  0.99
0.99  0.98  0.98  0.98  0.98  0.98  0.99  0.98  0.97  0.96  0.93  0.90  0.88  0.87  0.85  0.84  0.85  0.87  0.88  0.90  0.93  0.96  0.97  0.98  0.99
0.99  0.98  0.98  0.98  0.98  0.98  0.99  0.98  0.97  0.96  0.93  0.90  0.88  0.87  0.85  0.84  0.85  0.87  0.88  0.90  0.93  0.96  0.97  0.98  0.99
0.99  0.98  0.98  0.98  0.98  0.98  0.99  0.98  0.97  0.96  0.93  0.90  0.88  0.87  0.85  0.84  0.85  0.87  0.88  0.90  0.93  0.96  0.97  0.98  0.99
0.99  0.98  0.98  0.98  0.98  0.98  0.99  0.98  0.97  0.96  0.93  0.90  0.88  0.87  0.85  0.84  0.85  0.87  0.88  0.90  0.93  0.96  0.97  0.98  0.99
0.99  0.98  0.98  0.98  0.98  0.98  0.99  0.98  0.97  0.96  0.93  0.90  0.88  0.87  0.85  0.84  0.85  0.87  0.88  0.90  0.93  0.96  0.97  0.98  0.99
0.99  0.98  0.98  0.98  0.98  0.98  0.99  0.98  0.97  0.96  0.93  0.90  0.88  0.87  0.85  0.84  0.85  0.87  0.88  0.90  0.93  0.96  0.97  0.98  0.99
0.99  0.98  0.98  0.98  0.98  0.98  0.99  0.98  0.97  0.96  0.93  0.90  0.88  0.87  0.85  0.84  0.85  0.87  0.88  0.90  0.93  0.96  0.97  0.98  0.99
0.99  0.98  0.98  0.98  0.98  0.98  0.99  0.98  0.97  0.96  0.93  0.90  0.88  0.87  0.85  0.84  0.85  0.87  0.88  0.90  0.93  0.96  0.97  0.98  0.99
0.99  0.98  0.98  0.98  0.98  0.98  0.99  0.98  0.97  0.96  0.93  0.90  0.88  0.87  0.85  0.84  0.85  0.87  0.88  0.90  0.93  0.96  0.97  0.98  0.99
0.99  0.98  0.98  0.98  0.98  0.98  0.99  0.98  0.97  0.96  0.93  0.90  0.88  0.87  0.85  0.84  0.85  0.87  0.88  0.90  0.93  0.96  0.97  0.98  0.99
0.99  0.98  0.98  0.98  0.98  0.98  0.99  0.98  0.97  0.96  0.93  0.90  0.88  0.87  0.85  0.84  0.85  0.87  0.88  0.90  0.93  0.96  0.97  0.98  0.99
$ ilon ilat of the cell. lon: -93.0, 20.0
59   61
$ sizes of the cell in km
   156.882      175.054      197.542      228.980      203.680      184.587      166.792      184.587      203.680      228.980      197.542      175.054      156.882      175.054      197.542      228.980      203.680      184.587      166.792      184.587      203.680      228.980      197.542      175.054      156.882
$ mean alpha: 0.983111287435
$ mean beta: 0.990000324702
$alpha by ik, ith
0.98  0.98  0.98  0.98  0.99  0.99  0.99  0.99  0.99  0.98  0.98  0.98  0.98  0.98  0.98  0.98  0.99  0.99  0.99  0.99  0.99  0.98  0.98  0.98  0.98
0.98  0.98  0.98  0.98  0.99  0.99  0.99  0.99  0.99  0.98  0.98  0.98  0.98  0.98  0.98  0.98  0.99  0.99  0.99  0.99  0.99  0.98  0.98  0.98  0.98
0.98  0.98  0.98  0.98  0.99  0.99  0.99  0.99  0.99  0.98  0.98  0.98  0.98  0.98  0.98  0.98  0.99  0.99  0.99  0.99  0.99  0.98  0.98  0.98  0.98
0.98  0.98  0.98  0.98  0.99  0.99  0.99  0.99  0.99  0.98  0.98  0.98  0.98  0.98  0.98  0.98  0.99  0.99  0.99  0.99  0.99  0.98  0.98  0.98  0.98
0.98  0.98  0.98  0.98  0.99  0.99  0.99  0.99  0.99  0.98  0.98  0.98  0.98  0.98  0.98  0.98  0.99  0.99  0.99  0.99  0.99  0.98  0.98  0.98  0.98
0.98  0.98  0.98  0.98  0.99  0.99  0.99  0.99  0.99  0.98  0.98  0.98  0.98  0.98  0.98  0.98  0.99  0.99  0.99  0.99  0.99  0.98  0.98  0.98  0.98
0.98  0.98  0.98  0.98  0.99  0.99  0.99  0.99  0.99  0.98  0.98  0.98  0.98  0.98  0.98  0.98  0.99  0.99  0.99  0.99  0.99  0.98  0.98  0.98  0.98
0.98  0.98  0.98  0.98  0.99  0.99  0.99  0.99  0.99  0.98  0.98  0.98  0.98  0.98  0.98  0.98  0.99  0.99  0.99  0.99  0.99  0.98  0.98  0.98  0.98
0.98  0.98  0.98  0.98  0.99  0.99  0.99  0.99  0.99  0.98  0.98  0.98  0.98  0.98  0.98  0.98  0.99  0.99  0.99  0.99  0.99  0.98  0.98  0.98  0.98
0.98  0.98  0.98  0.98  0.99  0.99  0.99  0.99  0.99  0.98  0.98  0.98  0.98  0.98  0.98  0.98  0.99  0.99  0.99  0.99  0.99  0.98  0.98  0.98  0.98
0.98  0.98  0.98  0.98  0.99  0.99  0.99  0.99  0.99  0.98  0.98  0.98  0.98  0.98  0.98  0.98  0.99  0.99  0.99  0.99  0.99  0.98  0.98  0.98  0.98
0.98  0.98  0.98  0.98  0.99  0.99  0.99  0.99  0.99  0.98  0.98  0.98  0.98  0.98  0.98  0.98  0.99  0.99  0.99  0.99  0.99  0.98  0.98  0.98  0.98
0.98  0.98  0.98  0.98  0.99  0.99  0.99  0.99  0.99  0.98  0.98  0.98  0.98  0.98  0.98  0.98  0.99  0.99  0.99  0.99  0.99  0.98  0.98  0.98  0.98
0.98  0.98  0.98  0.98  0.99  0.99  0.99  0.99  0.99  0.98  0.98  0.98  0.98  0.98  0.98  0.98  0.99  0.99  0.99  0.99  0.99  0.98  0.98  0.98  0.98
0.98  0.98  0.98  0.98  0.99  0.99  0.99  0.99  0.99  0.98  0.98  0.98  0.98  0.98  0.98  0.98  0.99  0.99  0.99  0.99  0.99  0.98  0.98  0.98  0.98
0.98  0.98  0.98  0.98  0.99  0.99  0.99  0.99  0.99  0.98  0.98  0.98  0.98  0.98  0.98  0.98  0.99  0.99  0.99  0.99  0.99  0.98  0.98  0.98  0.98
0.98  0.98  0.98  0.98  0.99  0.99  0.99  0.99  0.99  0.98  0.98  0.98  0.98  0.98  0.98  0.98  0.99  0.99  0.99  0.99  0.99  0.98  0.98  0.98  0.98
0.98  0.98  0.98  0.98  0.99  0.99  0.99  0.99  0.99  0.98  0.98  0.98  0.98  0.98  0.98  0.98  0.99  0.99  0.99  0.99  0.99  0.98  0.98  0.98  0.98
0.98  0.98  0.98  0.98  0.99  0.99  0.99  0.99  0.99  0.98  0.98  0.98  0.98  0.98  0.98  0.98  0.99  0.99  0.99  0.99  0.99  0.98  0.98  0.98  0.98
0.98  0.98  0.98  0.98  0.99  0.99  0.99  0.99  0.99  0.98  0.98  0.98  0.98  0.98  0.98  0.98  0.99  0.99  0.99  0.99  0.99  0.98  0.98  0.98  0.98
0.98  0.98  0.98  0.98  0.99  0.99  0.99  0.99  0.99  0.98  0.98  0.98  0.98  0.98  0.98  0.98  0.99  0.99  0.99  0.99  0.99  0.98  0.98  0.98  0.98
0.98  0.98  0.98  0.98  0.99  0.99  0.99  0.99  0.99  0.98  0.98  0.98  0.98  0.98  0.98  0.98  0.99  0.99  0.99  0.99  0.99  0.98  0.98  0.98  0.98
0.98  0.98  0.98  0.98  0.99  0.99  0.99  0.99  0.99  0.98  0.98  0.98  0.98  0.98  0.98  0.98  0.99  0.99  0.99  0.99  0.99  0.98  0.98  0.98  0.98
0.98  0.98  0.98  0.98  0.99  0.99  0.99  0.99  0.99  0.98  0.98  0.98  0.98  0.98  0.98  0.98  0.99  0.99  0.99  0.99  0.99  0.98  0.98  0.98  0.98
0.98  0.98  0.98  0.98  0.99  0.99  0.99  0.99  0.99  0.98  0.98  0.98  0.98  0.98  0.98  0.98  0.99  0.99  0.99  0.99  0.99  0.98  0.98  0.98  0.98
$beta by ik, ith
1.00  1.00  1.00  1.00  1.00  1.00  1.00  1.00  0.99  0.99  0.99  0.98  0.98  0.98  0.98  0.98  0.98  0.99  0.99  0.99  0.99  0.99  0.99  0.99  1.00
1.00  1.00  1.00  1.00  1.00  1.00  1.00  1.00  0.99  0.99  0.99  0.98  0.98  0.98  0.98  0.98  0.98  0.99  0.99  0.99  0.99  0.99  0.99  0.99  1.00
1.00  1.00  1.00  1.00  1.00  1.00  1.00  1.00  0.99  0.99  0.99  0.98  0.98  0.98  0.98  0.98  0.98  0.99  0.99  0.99  0.99  0.99  0.99  0.99  1.00
1.00  1.00  1.00  1.00  1.00  1.00  1.00  1.00  0.99  0.99  0.99  0.98  0.98  0.98  0.98  0.98  0.98  0.99  0.99  0.99  0.99  0.99  0.99  0.99  1.00
1.00  1.00  1.00  1.00  1.00  1.00  1.00  1.00  0.99  0.99  0.99  0.98  0.98  0.98  0.98  0.98  0.98  0.99  0.99  0.99  0.99  0.99  0.99  0.99  1.00
1.00  1.00  1.00  1.00  1.00  1.00  1.00  1.00  0.99  0.99  0.99  0.98  0.98  0.98  0.98  0.98  0.98  0.99  0.99  0.99  0.99  0.99  0.99  0.99  1.00
1.00  1.00  1.00  1.00  1.00  1.00  1.00  1.00  0.99  0.99  0.99  0.98  0.98  0.98  0.98  0.98  0.98  0.99  0.99  0.99  0.99  0.99  0.99  0.99  1.00
1.00  1.00  1.00  1.00  1.00  1.00  1.00  1.00  0.99  0.99  0.99  0.98  0.98  0.98  0.98  0.98  0.98  0.99  0.99  0.99  0.99  0.99  0.99  0.99  1.00
1.00  1.00  1.00  1.00  1.00  1.00  1.00  1.00  0.99  0.99  0.99  0.98  0.98  0.98  0.98  0.98  0.98  0.99  0.99  0.99  0.99  0.99  0.99  0.99  1.00
1.00  1.00  1.00  1.00  1.00  1.00  1.00  1.00  0.99  0.99  0.99  0.98  0.98  0.98  0.98  0.98  0.98  0.99  0.99  0.99  0.99  0.99  0.99  0.99  1.00
1.00  1.00  1.00  1.00  1.00  1.00  1.00  1.00  0.99  0.99  0.99  0.98  0.98  0.98  0.98  0.98  0.98  0.99  0.99  0.99  0.99  0.99  0.99  0.99  1.00
1.00  1.00  1.00  1.00  1.00  1.00  1.00  1.00  0.99  0.99  0.99  0.98  0.98  0.98  0.98  0.98  0.98  0.99  0.99  0.99  0.99  0.99  0.99  0.99  1.00
1.00  1.00  1.00  1.00  1.00  1.00  1.00  1.00  0.99  0.99  0.99  0.98  0.98  0.98  0.98  0.98  0.98  0.99  0.99  0.99  0.99  0.99  0.99  0.99  1.00
1.00  1.00  1.00  1.00  1.00  1.00  1.00  1.00  0.99  0.99  0.99  0.98  0.98  0.98  0.98  0.98  0.98  0.99  0.99  0.99  0.99  0.99  0.99  0.99  1.00
1.00  1.00  1.00  1.00  1.00  1.00  1.00  1.00  0.99  0.99  0.99  0.98  0.98  0.98  0.98  0.98  0.98  0.99  0.99  0.99  0.99  0.99  0.99  0.99  1.00
1.00  1.00  1.00  1.00  1.00  1.00  1.00  1.00  0.99  0.99  0.99  0.98  0.98  0.98  0.98  0.98  0.98  0.99  0.99  0.99  0.99  0.99  0.99  0.99  1.00
1.00  1.00  1.00  1.00  1.00  1.00  1.00  1.00  0.99  0.99  0.99  0.98  0.98  0.98  0.98  0.98  0.98  0.99  0.99  0.99  0.99  0.99  0.99  0.99  1.00
1.00  1.00  1.00  1.00  1.00  1.00  1.00  1.00  0.99  0.99  0.99  0.98  0.98  0.98  0.98  0.98  0.98  0.99  0.99  0.99  0.99  0.99  0.99  0.99  1.00
1.00  1.00  1.00  1.00  1.00  1.00  1.00  1.00  0.99  0.99  0.99  0.98  0.98  0.98  0.98  0.98  0.98  0.99  0.99  0.99  0.99  0.99  0.99  0.99  1.00
1.00  1.00  1.00  1.00  1.00  1.00  1.00  1.00  0.99  0.99  0.99  0.98  0.98  0.98  0.98  0.98  0.98  0.99  0.99  0.99  0.99  0.99  0.99  0.99  1.00
1.00  1.00  1.00  1.00  1.00  1.00  1.00  1.00  0.99  0.99  0.99  0.98  0.98  0.98  0.98  0.98  0.98  0.99  0.99  0.99  0.99  0.99  0.99  0.99  1.00
1.00  1.00  1.00  1.00  1.00  1.00  1.00  1.00  0.99  0.99  0.99  0.98  0.98  0.98  0.98  0.98  0.98  0.99  0.99  0.99  0.99  0.99  0.99  0.99  1.00
1.00  1.00  1.00  1.00  1.00  1.00  1.00  1.00  0.99  0.99  0.99  0.98  0.98  0.98  0.98  0.98  0.98  0.99  0.99  0.99  0.99  0.99  0.99  0.99  1.00
1.00  1.00  1.00  1.00  1.00  1.00  1.00  1.00  0.99  0.99  0.99  0.98  0.98  0.98  0.98  0.98  0.98  0.99  0.99  0.99  0.99  0.99  0.99  0.99  1.00
1.00  1.00  1.00  1.00  1.00  1.00  1.00  1.00  0.99  0.99  0.99  0.98  0.98  0.98  0.98  0.98  0.98  0.99  0.99  0.99  0.99  0.99  0.99  0.99  1.00
$ ilon ilat of the cell. lon: -93.0, 21.5
59   62
$ sizes of the cell in km
   155.346      173.469      196.139      227.930      203.227      184.480      166.792      184.480      203.227      227.930      196.139      173.469      155.346      173.469      196.139      227.930      203.227      184.480      166.792      184.480      203.227      227.930      196.139      173.469      155.346
$ mean alpha: 0.972000264486
$ mean beta: 0.982965286358
$alpha by ik, ith
0.97  0.97  0.97  0.97  0.97  0.98  0.98  0.98  0.97  0.97  0.97  0.97  0.97  0.97  0.97  0.97  0.97  0.98  0.98  0.98  0.97  0.97  0.97  0.97  0.97
0.97  0.97  0.97  0.97  0.97  0.98  0.98  0.98  0.97  0.97  0.97  0.97  0.97  0.97  0.97  0.97  0.97  0.98  0.98  0.98  0.97  0.97  0.97  0.97  0.97
0.97  0.97  0.97  0.97  0.97  0.98  0.98  0.98  0.97  0.97  0.97  0.97  0.97  0.97  0.97  0.97  0.97  0.98  0.98  0.98  0.97  0.97  0.97  0.97  0.97
0.97  0.97  0.97  0.97  0.97  0.98  0.98  0.98  0.97  0.97  0.97  0.97  0.97  0.97  0.97  0.97  0.97  0.98  0.98  0.98  0.97  0.97  0.97  0.97  0.97
0.97  0.97  0.97  0.97  0.97  0.98  0.98  0.98  0.97  0.97  0.97  0.97  0.97  0.97  0.97  0.97  0.97  0.98  0.98  0.98  0.97  0.97  0.97  0.97  0.97
0.97  0.97  0.97  0.97  0.97  0.98  0.98  0.98  0.97  0.97  0.97  0.97  0.97  0.97  0.97  0.97  0.97  0.98  0.98  0.98  0.97  0.97  0.97  0.97  0.97
0.97  0.97  0.97  0.97  0.97  0.98  0.98  0.98  0.97  0.97  0.97  0.97  0.97  0.97  0.97  0.97  0.97  0.98  0.98  0.98  0.97  0.97  0.97  0.97  0.97
0.97  0.97  0.97  0.97  0.97  0.98  0.98  0.98  0.97  0.97  0.97  0.97  0.97  0.97  0.97  0.97  0.97  0.98  0.98  0.98  0.97  0.97  0.97  0.97  0.97
0.97  0.97  0.97  0.97  0.97  0.98  0.98  0.98  0.97  0.97  0.97  0.97  0.97  0.97  0.97  0.97  0.97  0.98  0.98  0.98  0.97  0.97  0.97  0.97  0.97
0.97  0.97  0.97  0.97  0.97  0.98  0.98  0.98  0.97  0.97  0.97  0.97  0.97  0.97  0.97  0.97  0.97  0.98  0.98  0.98  0.97  0.97  0.97  0.97  0.97
0.97  0.97  0.97  0.97  0.97  0.98  0.98  0.98  0.97  0.97  0.97  0.97  0.97  0.97  0.97  0.97  0.97  0.98  0.98  0.98  0.97  0.97  0.97  0.97  0.97
0.97  0.97  0.97  0.97  0.97  0.98  0.98  0.98  0.97  0.97  0.97  0.97  0.97  0.97  0.97  0.97  0.97  0.98  0.98  0.98  0.97  0.97  0.97  0.97  0.97
0.97  0.97  0.97  0.97  0.97  0.98  0.98  0.98  0.97  0.97  0.97  0.97  0.97  0.97  0.97  0.97  0.97  0.98  0.98  0.98  0.97  0.97  0.97  0.97  0.97
0.97  0.97  0.97  0.97  0.97  0.98  0.98  0.98  0.97  0.97  0.97  0.97  0.97  0.97  0.97  0.97  0.97  0.98  0.98  0.98  0.97  0.97  0.97  0.97  0.97
0.97  0.97  0.97  0.97  0.97  0.98  0.98  0.98  0.97  0.97  0.97  0.97  0.97  0.97  0.97  0.97  0.97  0.98  0.98  0.98  0.97  0.97  0.97  0.97  0.97
0.97  0.97  0.97  0.97  0.97  0.98  0.98  0.98  0.97  0.97  0.97  0.97  0.97  0.97  0.97  0.97  0.97  0.98  0.98  0.98  0.97  0.97  0.97  0.97  0.97
0.97  0.97  0.97  0.97  0.97  0.98  0.98  0.98  0.97  0.97  0.97  0.97  0.97  0.97  0.97  0.97  0.97  0.98  0.98  0.98  0.97  0.97  0.97  0.97  0.97
0.97  0.97  0.97  0.97  0.97  0.98  0.98  0.98  0.97  0.97  0.97  0.97  0.97  0.97  0.97  0.97  0.97  0.98  0.98  0.98  0.97  0.97  0.97  0.97  0.97
0.97  0.97  0.97  0.97  0.97  0.98  0.98  0.98  0.97  0.97  0.97  0.97  0.97  0.97  0.97  0.97  0.97  0.98  0.98  0.98  0.97  0.97  0.97  0.97  0.97
0.97  0.97  0.97  0.97  0.97  0.98  0.98  0.98  0.97  0.97  0.97  0.97  0.97  0.97  0.97  0.97  0.97  0.98  0.98  0.98  0.97  0.97  0.97  0.97  0.97
0.97  0.97  0.97  0.97  0.97  0.98  0.98  0.98  0.97  0.97  0.97  0.97  0.97  0.97  0.97  0.97  0.97  0.98  0.98  0.98  0.97  0.97  0.97  0.97  0.97
0.97  0.97  0.97  0.97  0.97  0.98  0.98  0.98  0.97  0.97  0.97  0.97  0.97  0.97  0.97  0.97  0.97  0.98  0.98  0.98  0.97  0.97  0.97  0.97  0.97
0.97  0.97  0.97  0.97  0.97  0.98  0.98  0.98  0.97  0.97  0.97  0.97  0.97  0.97  0.97  0.97  0.97  0.98  0.98  0.98  0.97  0.97  0.97  0.97  0.97
0.97  0.97  0.97  0.97  0.97  0.98  0.98  0.98  0.97  0.97  0.97  0.97  0.97  0.97  0.97  0.97  0.97  0.98  0.98  0.98  0.97  0.97  0.97  0.97  0.97
0.97  0.97  0.97  0.97  0.97  0.98  0.98  0.98  0.97  0.97  0.97  0.97  0.97  0.97  0.97  0.97  0.97  0.98  0.98  0.98  0.97  0.97  0.97  0.97  0.97
$beta by ik, ith
0.99  0.99  0.99  0.99  0.98  0.98  0.98  0.98  0.97  0.97  0.97  0.97  0.97  0.97  0.97  0.98  0.98  0.99  0.99  0.99  0.99  0.99  0.99  0.99  0.99
0.99  0.99  0.99  0.99  0.98  0.98  0.98  0.98  0.97  0.97  0.97  0.97  0.97  0.97  0.97  0.98  0.98  0.99  0.99  0.99  0.99  0.99  0.99  0.99  0.99
0.99  0.99  0.99  0.99  0.98  0.98  0.98  0.98  0.97  0.97  0.97  0.97  0.97  0.97  0.97  0.98  0.98  0.99  0.99  0.99  0.99  0.99  0.99  0.99  0.99
0.99  0.99  0.99  0.99  0.98  0.98  0.98  0.98  0.97  0.97  0.97  0.97  0.97  0.97  0.97  0.98  0.98  0.99  0.99  0.99  0.99  0.99  0.99  0.99  0.99
0.99  0.99  0.99  0.99  0.98  0.98  0.98  0.98  0.97  0.97  0.97  0.97  0.97  0.97  0.97  0.98  0.98  0.99  0.99  0.99  0.99  0.99  0.99  0.99  0.99
0.99  0.99  0.99  0.99  0.98  0.98  0.98  0.98  0.97  0.97  0.97  0.97  0.97  0.97  0.97  0.98  0.98  0.99  0.99  0.99  0.99  0.99  0.99  0.99  0.99
0.99  0.99  0.99  0.99  0.98  0.98  0.98  0.98  0.97  0.97  0.97  0.97  0.97  0.97  0.97  0.98  0.98  0.99  0.99  0.99  0.99  0.99  0.99  0.99  0.99
0.99  0.99  0.99  0.99  0.98  0.98  0.98  0.98  0.97  0.97  0.97  0.97  0.97  0.97  0.97  0.98  0.98  0.99  0.99  0.99  0.99  0.99  0.99  0.99  0.99
0.99  0.99  0.99  0.99  0.98  0.98  0.98  0.98  0.97  0.97  0.97  0.97  0.97  0.97  0.97  0.98  0.98  0.99  0.99  0.99  0.99  0.99  0.99  0.99  0.99
0.99  0.99  0.99  0.99  0.98  0.98  0.98  0.98  0.97  0.97  0.97  0.97  0.97  0.97  0.97  0.98  0.98  0.99  0.99  0.99  0.99  0.99  0.99  0.99  0.99
0.99  0.99  0.99  0.99  0.98  0.98  0.98  0.98  0.97  0.97  0.97  0.97  0.97  0.97  0.97  0.98  0.98  0.99  0.99  0.99  0.99  0.99  0.99  0.99  0.99
0.99  0.99  0.99  0.99  0.98  0.98  0.98  0.98  0.97  0.97  0.97  0.97  0.97  0.97  0.97  0.98  0.98  0.99  0.99  0.99  0.99  0.99  0.99  0.99  0.99
0.99  0.99  0.99  0.99  0.98  0.98  0.98  0.98  0.97  0.97  0.97  0.97  0.97  0.97  0.97  0.98  0.98  0.99  0.99  0.99  0.99  0.99  0.99  0.99  0.99
0.99  0.99  0.99  0.99  0.98  0.98  0.98  0.98  0.97  0.97  0.97  0.97  0.97  0.97  0.97  0.98  0.98  0.99  0.99  0.99  0.99  0.99  0.99  0.99  0.99
0.99  0.99  0.99  0.99  0.98  0.98  0.98  0.98  0.97  0.97  0.97  0.97  0.97  0.97  0.97  0.98  0.98  0.99  0.99  0.99  0.99  0.99  0.99  0.99  0.99
0.99  0.99  0.99  0.99  0.98  0.98  0.98  0.98  0.97  0.97  0.97  0.97  0.97  0.97  0.97  0.98  0.98  0.99  0.99  0.99  0.99  0.99  0.99  0.99  0.99
0.99  0.99  0.99  0.99  0.98  0.98  0.98  0.98  0.97  0.97  0.97  0.97  0.97  0.97  0.97  0.98  0.98  0.99  0.99  0.99  0.99  0.99  0.99  0.99  0.99
0.99  0.99  0.99  0.99  0.98  0.98  0.98  0.98  0.97  0.97  0.97  0.97  0.97  0.97  0.97  0.98  0.98  0.99  0.99  0.99  0.99  0.99  0.99  0.99  0.99
0.99  0.99  0.99  0.99  0.98  0.98  0.98  0.98  0.97  0.97  0.97  0.97  0.97  0.97  0.97  0.98  0.98  0.99  0.99  0.99  0.99  0.99  0.99  0.99  0.99
0.99  0.99  0.99  0.99  0.98  0.98  0.98  0.98  0.97  0.97  0.97  0.97  0.97  0.97  0.97  0.98  0.98  0.99  0.99  0.99  0.99  0.99  0.99  0.99  0.99
0.99  0.99  0.99  0.99  0.98  0.98  0.98  0.98  0.97  0.97  0.97  0.97  0.97  0.97  0.97  0.98  0.98  0.99  0.99  0.99  0.99  0.99  0.99  0.99  0.99
0.99  0.99  0.99  0.99  0.98  0.98  0.98  0.98  0.97  0.97  0.97  0.97  0.97  0.97  0.97  0.98  0.98  0.99  0.99  0.99  0.99  0.99  0.99  0.99  0.99
0.99  0.99  0.99  0.99  0.98  0.98  0.98  0.98  0.97  0.97  0.97  0.97  0.97  0.97  0.97  0.98  0.98  0.99  0.99  0.99  0.99  0.99  0.99  0.99  0.99
0.99  0.99  0.99  0.99  0.98  0.98  0.98  0.98  0.97  0.97  0.97  0.97  0.97  0.97  0.97  0.98  0.98  0.99  0.99  0.99  0.99  0.99  0.99  0.99  0.99
0.99  0.99  0.99  0.99  0.98  0.98  0.98  0.98  0.97  0.97  0.97  0.97  0.97  0.97  0.97  0.98  0.98  0.99  0.99  0.99  0.99  0.99  0.99  0.99  0.99
$ ilon ilat of the cell. lon: -93.0, 29.0
59   67
$ sizes of the cell in km
   146.091      163.947      187.770      221.726      200.575      183.854      166.792      183.854      200.575      221.726      187.770      163.947      146.091      163.947      187.770      221.726      200.575      183.854      166.792      183.854      200.575      221.726      187.770      163.947      146.091
$ mean alpha: 0.705333150228
$ mean beta: 0.808490755533
$alpha by ik, ith
0.87  0.81  0.74  0.68  0.62  0.56  0.50  0.58  0.66  0.74  0.79  0.83  0.87  0.81  0.74  0.68  0.62  0.56  0.50  0.58  0.66  0.74  0.79  0.83  0.87
0.87  0.81  0.74  0.68  0.62  0.56  0.50  0.58  0.66  0.74  0.79  0.83  0.87  0.81  0.74  0.68  0.62  0.56  0.50  0.58  0.66  0.74  0.79  0.83  0.87
0.87  0.81  0.74  0.68  0.62  0.56  0.50  0.58  0.66  0.74  0.79  0.83  0.87  0.81  0.74  0.68  0.62  0.56  0.50  0.58  0.66  0.74  0.79  0.83  0.87
0.87  0.81  0.74  0.68  0.62  0.56  0.50  0.58  0.66  0.74  0.79  0.83  0.87  0.81  0.74  0.68  0.62  0.56  0.50  0.58  0.66  0.74  0.79  0.83  0.87
0.87  0.81  0.74  0.68  0.62  0.56  0.50  0.58  0.66  0.74  0.79  0.83  0.87  0.81  0.74  0.68  0.62  0.56  0.50  0.58  0.66  0.74  0.79  0.83  0.87
0.87  0.81  0.74  0.68  0.62  0.56  0.50  0.58  0.66  0.74  0.79  0.83  0.87  0.81  0.74  0.68  0.62  0.56  0.50  0.58  0.66  0.74  0.79  0.83  0.87
0.87  0.81  0.74  0.68  0.62  0.56  0.50  0.58  0.66  0.74  0.79  0.83  0.87  0.81  0.74  0.68  0.62  0.56  0.50  0.58  0.66  0.74  0.79  0.83  0.87
0.87  0.81  0.74  0.68  0.62  0.56  0.50  0.58  0.66  0.74  0.79  0.83  0.87  0.81  0.74  0.68  0.62  0.56  0.50  0.58  0.66  0.74  0.79  0.83  0.87
0.87  0.81  0.74  0.68  0.62  0.56  0.50  0.58  0.66  0.74  0.79  0.83  0.87  0.81  0.74  0.68  0.62  0.56  0.50  0.58  0.66  0.74  0.79  0.83  0.87
0.87  0.81  0.74  0.68  0.62  0.56  0.50  0.58  0.66  0.74  0.79  0.83  0.87  0.81  0.74  0.68  0.62  0.56  0.50  0.58  0.66  0.74  0.79  0.83  0.87
0.87  0.81  0.74  0.68  0.62  0.56  0.50  0.58  0.66  0.74  0.79  0.83  0.87  0.81  0.74  0.68  0.62  0.56  0.50  0.58  0.66  0.74  0.79  0.83  0.87
0.87  0.81  0.74  0.68  0.62  0.56  0.50  0.58  0.66  0.74  0.79  0.83  0.87  0.81  0.74  0.68  0.62  0.56  0.50  0.58  0.66  0.74  0.79  0.83  0.87
0.87  0.81  0.74  0.68  0.62  0.56  0.50  0.58  0.66  0.74  0.79  0.83  0.87  0.81  0.74  0.68  0.62  0.56  0.50  0.58  0.66  0.74  0.79  0.83  0.87
0.87  0.81  0.74  0.68  0.62  0.56  0.50  0.58  0.66  0.74  0.79  0.83  0.87  0.81  0.74  0.68  0.62  0.56  0.50  0.58  0.66  0.74  0.79  0.83  0.87
0.87  0.81  0.74  0.68  0.62  0.56  0.50  0.58  0.66  0.74  0.79  0.83  0.87  0.81  0.74  0.68  0.62  0.56  0.50  0.58  0.66  0.74  0.79  0.83  0.87
0.87  0.81  0.74  0.68  0.62  0.56  0.50  0.58  0.66  0.74  0.79  0.83  0.87  0.81  0.74  0.68  0.62  0.56  0.50  0.58  0.66  0.74  0.79  0.83  0.87
0.87  0.81  0.74  0.68  0.62  0.56  0.50  0.58  0.66  0.74  0.79  0.83  0.87  0.81  0.74  0.68  0.62  0.56  0.50  0.58  0.66  0.74  0.79  0.83  0.87
0.87  0.81  0.74  0.68  0.62  0.56  0.50  0.58  0.66  0.74  0.79  0.83  0.87  0.81  0.74  0.68  0.62  0.56  0.50  0.58  0.66  0.74  0.79  0.83  0.87
0.87  0.81  0.74  0.68  0.62  0.56  0.50  0.58  0.66  0.74  0.79  0.83  0.87  0.81  0.74  0.68  0.62  0.56  0.50  0.58  0.66  0.74  0.79  0.83  0.87
0.87  0.81  0.74  0.68  0.62  0.56  0.50  0.58  0.66  0.74  0.79  0.83  0.87  0.81  0.74  0.68  0.62  0.56  0.50  0.58  0.66  0.74  0.79  0.83  0.87
0.87  0.81  0.74  0.68  0.62  0.56  0.50  0.58  0.66  0.74  0.79  0.83  0.87  0.81  0.74  0.68  0.62  0.56  0.50  0.58  0.66  0.74  0.79  0.83  0.87
0.87  0.81  0.74  0.68  0.62  0.56  0.50  0.58  0.66  0.74  0.79  0.83  0.87  0.81  0.74  0.68  0.62  0.56  0.50  0.58  0.66  0.74  0.79  0.83  0.87
0.87  0.81  0.74  0.68  0.62  0.56  0.50  0.58  0.66  0.74  0.79  0.83  0.87  0.81  0.74  0.68  0.62  0.56  0.50  0.58  0.66  0.74  0.79  0.83  0.87
0.87  0.81  0.74  0.68  0.62  0.56  0.50  0.58  0.66  0.74  0.79  0.83  0.87  0.81  0.74  0.68  0.62  0.56  0.50  0.58  0.66  0.74  0.79  0.83  0.87
0.87  0.81  0.74  0.68  0.62  0.56  0.50  0.58  0.66  0.74  0.79  0.83  0.87  0.81  0.74  0.68  0.62  0.56  0.50  0.58  0.66  0.74  0.79  0.83  0.87
$beta by ik, ith
0.95  0.94  0.93  0.92  0.92  0.92  0.93  0.90  0.87  0.85  0.85  0.86  0.87  0.79  0.70  0.62  0.58  0.54  0.50  0.60  0.70  0.80  0.85  0.90  0.95
0.95  0.94  0.93  0.92  0.92  0.92  0.93  0.90  0.87  0.85  0.85  0.86  0.87  0.79  0.70  0.62  0.58  0.54  0.50  0.60  0.70  0.80  0.85  0.90  0.95
0.95  0.94  0.93  0.92  0.92  0.92  0.93  0.90  0.87  0.85  0.85  0.86  0.87  0.79  0.70  0.62  0.58  0.54  0.50  0.60  0.70  0.80  0.85  0.90  0.95
0.95  0.94  0.93  0.92  0.92  0.92  0.93  0.90  0.87  0.85  0.85  0.86  0.87  0.79  0.70  0.62  0.58  0.54  0.50  0.60  0.70  0.80  0.85  0.90  0.95
0.95  0.94  0.93  0.92  0.92  0.92  0.93  0.90  0.87  0.85  0.85  0.86  0.87  0.79  0.70  0.62  0.58  0.54  0.50  0.60  0.70  0.80  0.85  0.90  0.95
0.95  0.94  0.93  0.92  0.92  0.92  0.93  0.90  0.87  0.85  0.85  0.86  0.87  0.79  0.70  0.62  0.58  0.54  0.50  0.60  0.70  0.80  0.85  0.90  0.95
0.95  0.94  0.93  0.92  0.92  0.92  0.93  0.90  0.87  0.85  0.85  0.86  0.87  0.79  0.70  0.62  0.58  0.54  0.50  0.60  0.70  0.80  0.85  0.90  0.95
0.95  0.94  0.93  0.92  0.92  0.92  0.93  0.90  0.87  0.85  0.85  0.86  0.87  0.79  0.70  0.62  0.58  0.54  0.50  0.60  0.70  0.80  0.85  0.90  0.95
0.95  0.94  0.93  0.92  0.92  0.92  0.93  0.90  0.87  0.85  0.85  0.86  0.87  0.79  0.70  0.62  0.58  0.54  0.50  0.60  0.70  0.80  0.85  0.90  0.95
0.95  0.94  0.93  0.92  0.92  0.92  0.93  0.90  0.87  0.85  0.85  0.86  0.87  0.79  0.70  0.62  0.58  0.54  0.50  0.60  0.70  0.80  0.85  0.90  0.95
0.95  0.94  0.93  0.92  0.92  0.92  0.93  0.90  0.87  0.85  0.85  0.86  0.87  0.79  0.70  0.62  0.58  0.54  0.50  0.60  0.70  0.80  0.85  0.90  0.95
0.95  0.94  0.93  0.92  0.92  0.92  0.93  0.90  0.87  0.85  0.85  0.86  0.87  0.79  0.70  0.62  0.58  0.54  0.50  0.60  0.70  0.80  0.85  0.90  0.95
0.95  0.94  0.93  0.92  0.92  0.92  0.93  0.90  0.87  0.85  0.85  0.86  0.87  0.79  0.70  0.62  0.58  0.54  0.50  0.60  0.70  0.80  0.85  0.90  0.95
0.95  0.94  0.93  0.92  0.92  0.92  0.93  0.90  0.87  0.85  0.85  0.86  0.87  0.79  0.70  0.62  0.58  0.54  0.50  0.60  0.70  0.80  0.85  0.90  0.95
0.95  0.94  0.93  0.92  0.92  0.92  0.93  0.90  0.87  0.85  0.85  0.86  0.87  0.79  0.70  0.62  0.58  0.54  0.50  0.60  0.70  0.80  0.85  0.90  0.95
0.95  0.94  0.93  0.92  0.92  0.92  0.93  0.90  0.87  0.85  0.85  0.86  0.87  0.79  0.70  0.62  0.58  0.54  0.50  0.60  0.70  0.80  0.85  0.90  0.95
0.95  0.94  0.93  0.92  0.92  0.92  0.93  0.90  0.87  0.85  0.85  0.86  0.87  0.79  0.70  0.62  0.58  0.54  0.50  0.60  0.70  0.80  0.85  0.90  0.95
0.95  0.94  0.93  0.92  0.92  0.92  0.93  0.90  0.87  0.85  0.85  0.86  0.87  0.79  0.70  0.62  0.58  0.54  0.50  0.60  0.70  0.80  0.85  0.90  0.95
0.95  0.94  0.93  0.92  0.92  0.92  0.93  0.90  0.87  0.85  0.85  0.86  0.87  0.79  0.70  0.62  0.58  0.54  0.50  0.60  0.70  0.80  0.85  0.90  0.95
0.95  0.94  0.93  0.92  0.92  0.92  0.93  0.90  0.87  0.85  0.85  0.86  0.87  0.79  0.70  0.62  0.58  0.54  0.50  0.60  0.70  0.80  0.85  0.90  0.95
0.95  0.94  0.93  0.92  0.92  0.92  0.93  0.90  0.87  0.85  0.85  0.86  0.87  0.79  0.70  0.62  0.58  0.54  0.50  0.60  0.70  0.80  0.85  0.90  0.95
0.95  0.94  0.93  0.92  0.92  0.92  0.93  0.90  0.87  0.85  0.85  0.86  0.87  0.79  0.70  0.62  0.58  0.54  0.50  0.60  0.70  0.80  0.85  0.90  0.95
0.95  0.94  0.93  0.92  0.92  0.92  0.93  0.90  0.87  0.85  0.85  0.86  0.87  0.79  0.70  0.62  0.58  0.54  0.50  0.60  0.70  0.80  0.85  0.90  0.95
0.95  0.94  0.93  0.92  0.92  0.92  0.93  0.90  0.87  0.85  0.85  0.86  0.87  0.79  0.70  0.62  0.58  0.54  0.50  0.60  0.70  0.80  0.85  0.90  0.95
0.95  0.94  0.93  0.92  0.92  0.92  0.93  0.90  0.87  0.85  0.85  0.86  0.87  0.79  0.70  0.62  0.58  0.54  0.50  0.60  0.70  0.80  0.85  0.90  0.95
$ ilon ilat of the cell. lon: -91.5, 20.0
60   61
$ sizes of the cell in km
   156.882      175.054      197.542      228.980      203.680      184.587      166.792      184.587      203.680      228.980      197.542      175.054      156.882      175.054      197.542      228.980      203.680      184.587      166.792      184.587      203.680      228.980      197.542      175.054      156.882
$ mean alpha: 0.959555246989
$ mean beta: 0.975981137993
$alpha by ik, ith
0.96  0.96  0.97  0.97  0.97  0.96  0.96  0.96  0.96  0.96  0.96  0.96  0.96  0.96  0.97  0.97  0.97  0.96  0.96  0.96  0.96  0.96  0.96  0.96  0.96
0.96  0.96  0.97  0.97  0.97  0.96  0.96  0.96  0.96  0.96  0.96  0.96  0.96  0.96  0.97  0.97  0.97  0.96  0.96  0.96  0.96  0.96  0.96  0.96  0.96
0.96  0.96  0.97  0.97  0.97  0.96  0.96  0.96  0.96  0.96  0.96  0.96  0.96  0.96  0.97  0.97  0.97  0.96  0.96  0.96  0.96  0.96  0.96  0.96  0.96
0.96  0.96  0.97  0.97  0.97  0.96  0.96  0.96  0.96  0.96  0.96  0.96  0.96  0.96  0.97  0.97  0.97  0.96  0.96  0.96  0.96  0.96  0.96  0.96  0.96
0.96  0.96  0.97  0.97  0.97  0.96  0.96  0.96  0.96  0.96  0.96  0.96  0.96  0.96  0.97  0.97  0.97  0.96  0.96  0.96  0.96  0.96  0.96  0.96  0.96
0.96  0.96  0.97  0.97  0.97  0.96  0.96  0.96  0.96  0.96  0.96  0.96  0.96  0.96  0.97  0.97  0.97  0.96  0.96  0.96  0.96  0.96  0.96  0.96  0.96
0.96  0.96  0.97  0.97  0.97  0.96  0.96  0.96  0.96  0.96  0.96  0.96  0.96  0.96  0.97  0.97  0.97  0.96  0.96  0.96  0.96  0.96  0.96  0.96  0.96
0.96  0.96  0.97  0.97  0.97  0.96  0.96  0.96  0.96  0.96  0.96  0.96  0.96  0.96  0.97  0.97  0.97  0.96  0.96  0.96  0.96  0.96  0.96  0.96  0.96
0.96  0.96  0.97  0.97  0.97  0.96  0.96  0.96  0.96  0.96  0.96  0.96  0.96  0.96  0.97  0.97  0.97  0.96  0.96  0.96  0.96  0.96  0.96  0.96  0.96
0.96  0.96  0.97  0.97  0.97  0.96  0.96  0.96  0.96  0.96  0.96  0.96  0.96  0.96  0.97  0.97  0.97  0.96  0.96  0.96  0.96  0.96  0.96  0.96  0.96
0.96  0.96  0.97  0.97  0.97  0.96  0.96  0.96  0.96  0.96  0.96  0.96  0.96  0.96  0.97  0.97  0.97  0.96  0.96  0.96  0.96  0.96  0.96  0.96  0.96
0.96  0.96  0.97  0.97  0.97  0.96  0.96  0.96  0.96  0.96  0.96  0.96  0.96  0.96  0.97  0.97  0.97  0.96  0.96  0.96  0.96  0.96  0.96  0.96  0.96
0.96  0.96  0.97  0.97  0.97  0.96  0.96  0.96  0.96  0.96  0.96  0.96  0.96  0.96  0.97  0.97  0.97  0.96  0.96  0.96  0.96  0.96  0.96  0.96  0.96
0.96  0.96  0.97  0.97  0.97  0.96  0.96  0.96  0.96  0.96  0.96  0.96  0.96  0.96  0.97  0.97  0.97  0.96  0.96  0.96  0.96  0.96  0.96  0.96  0.96
0.96  0.96  0.97  0.97  0.97  0.96  0.96  0.96  0.96  0.96  0.96  0.96  0.96  0.96  0.97  0.97  0.97  0.96  0.96  0.96  0.96  0.96  0.96  0.96  0.96
0.96  0.96  0.97  0.97  0.97  0.96  0.96  0.96  0.96  0.96  0.96  0.96  0.96  0.96  0.97  0.97  0.97  0.96  0.96  0.96  0.96  0.96  0.96  0.96  0.96
0.96  0.96  0.97  0.97  0.97  0.96  0.96  0.96  0.96  0.96  0.96  0.96  0.96  0.96  0.97  0.97  0.97  0.96  0.96  0.96  0.96  0.96  0.96  0.96  0.96
0.96  0.96  0.97  0.97  0.97  0.96  0.96  0.96  0.96  0.96  0.96  0.96  0.96  0.96  0.97  0.97  0.97  0.96  0.96  0.96  0.96  0.96  0.96  0.96  0.96
0.96  0.96  0.97  0.97  0.97  0.96  0.96  0.96  0.96  0.96  0.96  0.96  0.96  0.96  0.97  0.97  0.97  0.96  0.96  0.96  0.96  0.96  0.96  0.96  0.96
0.96  0.96  0.97  0.97  0.97  0.96  0.96  0.96  0.96  0.96  0.96  0.96  0.96  0.96  0.97  0.97  0.97  0.96  0.96  0.96  0.96  0.96  0.96  0.96  0.96
0.96  0.96  0.97  0.97  0.97  0.96  0.96  0.96  0.96  0.96  0.96  0.96  0.96  0.96  0.97  0.97  0.97  0.96  0.96  0.96  0.96  0.96  0.96  0.96  0.96
0.96  0.96  0.97  0.97  0.97  0.96  0.96  0.96  0.96  0.96  0.96  0.96  0.96  0.96  0.97  0.97  0.97  0.96  0.96  0.96  0.96  0.96  0.96  0.96  0.96
0.96  0.96  0.97  0.97  0.97  0.96  0.96  0.96  0.96  0.96  0.96  0.96  0.96  0.96  0.97  0.97  0.97  0.96  0.96  0.96  0.96  0.96  0.96  0.96  0.96
0.96  0.96  0.97  0.97  0.97  0.96  0.96  0.96  0.96  0.96  0.96  0.96  0.96  0.96  0.97  0.97  0.97  0.96  0.96  0.96  0.96  0.96  0.96  0.96  0.96
0.96  0.96  0.97  0.97  0.97  0.96  0.96  0.96  0.96  0.96  0.96  0.96  0.96  0.96  0.97  0.97  0.97  0.96  0.96  0.96  0.96  0.96  0.96  0.96  0.96
$beta by ik, ith
1.00  0.99  0.99  0.98  0.97  0.96  0.96  0.95  0.95  0.94  0.95  0.95  0.96  0.96  0.97  0.98  0.99  0.99  1.00  0.99  0.99  0.99  0.99  0.99  1.00
1.00  0.99  0.99  0.98  0.97  0.96  0.96  0.95  0.95  0.94  0.95  0.95  0.96  0.96  0.97  0.98  0.99  0.99  1.00  0.99  0.99  0.99  0.99  0.99  1.00
1.00  0.99  0.99  0.98  0.97  0.96  0.96  0.95  0.95  0.94  0.95  0.95  0.96  0.96  0.97  0.98  0.99  0.99  1.00  0.99  0.99  0.99  0.99  0.99  1.00
1.00  0.99  0.99  0.98  0.97  0.96  0.96  0.95  0.95  0.94  0.95  0.95  0.96  0.96  0.97  0.98  0.99  0.99  1.00  0.99  0.99  0.99  0.99  0.99  1.00
1.00  0.99  0.99  0.98  0.97  0.96  0.96  0.95  0.95  0.94  0.95  0.95  0.96  0.96  0.97  0.98  0.99  0.99  1.00  0.99  0.99  0.99  0.99  0.99  1.00
1.00  0.99  0.99  0.98  0.97  0.96  0.96  0.95  0.95  0.94  0.95  0.95  0.96  0.96  0.97  0.98  0.99  0.99  1.00  0.99  0.99  0.99  0.99  0.99  1.00
1.00  0.99  0.99  0.98  0.97  0.96  0.96  0.95  0.95  0.94  0.95  0.95  0.96  0.96  0.97  0.98  0.99  0.99  1.00  0.99  0.99  0.99  0.99  0.99  1.00
1.00  0.99  0.99  0.98  0.97  0.96  0.96  0.95  0.95  0.94  0.95  0.95  0.96  0.96  0.97  0.98  0.99  0.99  1.00  0.99  0.99  0.99  0.99  0.99  1.00
1.00  0.99  0.99  0.98  0.97  0.96  0.96  0.95  0.95  0.94  0.95  0.95  0.96  0.96  0.97  0.98  0.99  0.99  1.00  0.99  0.99  0.99  0.99  0.99  1.00
1.00  0.99  0.99  0.98  0.97  0.96  0.96  0.95  0.95  0.94  0.95  0.95  0.96  0.96  0.97  0.98  0.99  0.99  1.00  0.99  0.99  0.99  0.99  0.99  1.00
1.00  0.99  0.99  0.98  0.97  0.96  0.96  0.95  0.95  0.94  0.95  0.95  0.96  0.96  0.97  0.98  0.99  0.99  1.00  0.99  0.99  0.99  0.99  0.99  1.00
1.00  0.99  0.99  0.98  0.97  0.96  0.96  0.95  0.95  0.94  0.95  0.95  0.96  0.96  0.97  0.98  0.99  0.99  1.00  0.99  0.99  0.99  0.99  0.99  1.00
1.00  0.99  0.99  0.98  0.97  0.96  0.96  0.95  0.95  0.94  0.95  0.95  0.96  0.96  0.97  0.98  0.99  0.99  1.00  0.99  0.99  0.99  0.99  0.99  1.00
1.00  0.99  0.99  0.98  0.97  0.96  0.96  0.95  0.95  0.94  0.95  0.95  0.96  0.96  0.97  0.98  0.99  0.99  1.00  0.99  0.99  0.99  0.99  0.99  1.00
1.00  0.99  0.99  0.98  0.97  0.96  0.96  0.95  0.95  0.94  0.95  0.95  0.96  0.96  0.97  0.98  0.99  0.99  1.00  0.99  0.99  0.99  0.99  0.99  1.00
1.00  0.99  0.99  0.98  0.97  0.96  0.96  0.95  0.95  0.94  0.95  0.95  0.96  0.96  0.97  0.98  0.99  0.99  1.00  0.99  0.99  0.99  0.99  0.99  1.00
1.00  0.99  0.99  0.98  0.97  0.96  0.96  0.95  0.95  0.94  0.95  0.95  0.96  0.96  0.97  0.98  0.99  0.99  1.00  0.99  0.99  0.99  0.99  0.99  1.00
1.00  0.99  0.99  0.98  0.97  0.96  0.96  0.95  0.95  0.94  0.95  0.95  0.96  0.96  0.97  0.98  0.99  0.99  1.00  0.99  0.99  0.99  0.99  0.99  1.00
1.00  0.99  0.99  0.98  0.97  0.96  0.96  0.95  0.95  0.94  0.95  0.95  0.96  0.96  0.97  0.98  0.99  0.99  1.00  0.99  0.99  0.99  0.99  0.99  1.00
1.00  0.99  0.99  0.98  0.97  0.96  0.96  0.95  0.95  0.94  0.95  0.95  0.96  0.96  0.97  0.98  0.99  0.99  1.00  0.99  0.99  0.99  0.99  0.99  1.00
1.00  0.99  0.99  0.98  0.97  0.96  0.96  0.95  0.95  0.94  0.95  0.95  0.96  0.96  0.97  0.98  0.99  0.99  1.00  0.99  0.99  0.99  0.99  0.99  1.00
1.00  0.99  0.99  0.98  0.97  0.96  0.96  0.95  0.95  0.94  0.95  0.95  0.96  0.96  0.97  0.98  0.99  0.99  1.00  0.99  0.99  0.99  0.99  0.99  1.00
1.00  0.99  0.99  0.98  0.97  0.96  0.96  0.95  0.95  0.94  0.95  0.95  0.96  0.96  0.97  0.98  0.99  0.99  1.00  0.99  0.99  0.99  0.99  0.99  1.00
1.00  0.99  0.99  0.98  0.97  0.96  0.96  0.95  0.95  0.94  0.95  0.95  0.96  0.96  0.97  0.98  0.99  0.99  1.00  0.99  0.99  0.99  0.99  0.99  1.00
1.00  0.99  0.99  0.98  0.97  0.96  0.96  0.95  0.95  0.94  0.95  0.95  0.96  0.96  0.97  0.98  0.99  0.99  1.00  0.99  0.99  0.99  0.99  0.99  1.00
$ ilon ilat of the cell. lon: -88.5, 12.5
62   56
$ sizes of the cell in km
   162.933      181.307      203.104      233.167      205.495      185.020      166.792      185.020      205.495      233.167      203.104      181.307      162.933      181.307      203.104      233.167      205.495      185.020      166.792      185.020      205.495      233.167      203.104      181.307      162.933
$ mean alpha: 0.663111139933
$ mean beta: 0.784614366682
$alpha by ik, ith
0.94  0.85  0.75  0.66  0.55  0.45  0.34  0.45  0.56  0.66  0.76  0.85  0.94  0.85  0.75  0.66  0.55  0.45  0.34  0.45  0.56  0.66  0.76  0.85  0.94
0.94  0.85  0.75  0.66  0.55  0.45  0.34  0.45  0.56  0.66  0.76  0.85  0.94  0.85  0.75  0.66  0.55  0.45  0.34  0.45  0.56  0.66  0.76  0.85  0.94
0.94  0.85  0.75  0.66  0.55  0.45  0.34  0.45  0.56  0.66  0.76  0.85  0.94  0.85  0.75  0.66  0.55  0.45  0.34  0.45  0.56  0.66  0.76  0.85  0.94
0.94  0.85  0.75  0.66  0.55  0.45  0.34  0.45  0.56  0.66  0.76  0.85  0.94  0.85  0.75  0.66  0.55  0.45  0.34  0.45  0.56  0.66  0.76  0.85  0.94
0.94  0.85  0.75  0.66  0.55  0.45  0.34  0.45  0.56  0.66  0.76  0.85  0.94  0.85  0.75  0.66  0.55  0.45  0.34  0.45  0.56  0.66  0.76  0.85  0.94
0.94  0.85  0.75  0.66  0.55  0.45  0.34  0.45  0.56  0.66  0.76  0.85  0.94  0.85  0.75  0.66  0.55  0.45  0.34  0.45  0.56  0.66  0.76  0.85  0.94
0.94  0.85  0.75  0.66  0.55  0.45  0.34  0.45  0.56  0.66  0.76  0.85  0.94  0.85  0.75  0.66  0.55  0.45  0.34  0.45  0.56  0.66  0.76  0.85  0.94
0.94  0.85  0.75  0.66  0.55  0.45  0.34  0.45  0.56  0.66  0.76  0.85  0.94  0.85  0.75  0.66  0.55  0.45  0.34  0.45  0.56  0.66  0.76  0.85  0.94
0.94  0.85  0.75  0.66  0.55  0.45  0.34  0.45  0.56  0.66  0.76  0.85  0.94  0.85  0.75  0.66  0.55  0.45  0.34  0.45  0.56  0.66  0.76  0.85  0.94
0.94  0.85  0.75  0.66  0.55  0.45  0.34  0.45  0.56  0.66  0.76  0.85  0.94  0.85  0.75  0.66  0.55  0.45  0.34  0.45  0.56  0.66  0.76  0.85  0.94
0.94  0.85  0.75  0.66  0.55  0.45  0.34  0.45  0.56  0.66  0.76  0.85  0.94  0.85  0.75  0.66  0.55  0.45  0.34  0.45  0.56  0.66  0.76  0.85  0.94
0.94  0.85  0.75  0.66  0.55  0.45  0.34  0.45  0.56  0.66  0.76  0.85  0.94  0.85  0.75  0.66  0.55  0.45  0.34  0.45  0.56  0.66  0.76  0.85  0.94
0.94  0.85  0.75  0.66  0.55  0.45  0.34  0.45  0.56  0.66  0.76  0.85  0.94  0.85  0.75  0.66  0.55  0.45  0.34  0.45  0.56  0.66  0.76  0.85  0.94
0.94  0.85  0.75  0.66  0.55  0.45  0.34  0.45  0.56  0.66  0.76  0.85  0.94  0.85  0.75  0.66  0.55  0.45  0.34  0.45  0.56  0.66  0.76  0.85  0.94
0.94  0.85  0.75  0.66  0.55  0.45  0.34  0.45  0.56  0.66  0.76  0.85  0.94  0.85  0.75  0.66  0.55  0.45  0.34  0.45  0.56  0.66  0.76  0.85  0.94
0.94  0.85  0.75  0.66  0.55  0.45  0.34  0.45  0.56  0.66  0.76  0.85  0.94  0.85  0.75  0.66  0.55  0.45  0.34  0.45  0.56  0.66  0.76  0.85  0.94
0.94  0.85  0.75  0.66  0.55  0.45  0.34  0.45  0.56  0.66  0.76  0.85  0.94  0.85  0.75  0.66  0.55  0.45  0.34  0.45  0.56  0.66  0.76  0.85  0.94
0.94  0.85  0.75  0.66  0.55  0.45  0.34  0.45  0.56  0.66  0.76  0.85  0.94  0.85  0.75  0.66  0.55  0.45  0.34  0.45  0.56  0.66  0.76  0.85  0.94
0.94  0.85  0.75  0.66  0.55  0.45  0.34  0.45  0.56  0.66  0.76  0.85  0.94  0.85  0.75  0.66  0.55  0.45  0.34  0.45  0.56  0.66  0.76  0.85  0.94
0.94  0.85  0.75  0.66  0.55  0.45  0.34  0.45  0.56  0.66  0.76  0.85  0.94  0.85  0.75  0.66  0.55  0.45  0.34  0.45  0.56  0.66  0.76  0.85  0.94
0.94  0.85  0.75  0.66  0.55  0.45  0.34  0.45  0.56  0.66  0.76  0.85  0.94  0.85  0.75  0.66  0.55  0.45  0.34  0.45  0.56  0.66  0.76  0.85  0.94
0.94  0.85  0.75  0.66  0.55  0.45  0.34  0.45  0.56  0.66  0.76  0.85  0.94  0.85  0.75  0.66  0.55  0.45  0.34  0.45  0.56  0.66  0.76  0.85  0.94
0.94  0.85  0.75  0.66  0.55  0.45  0.34  0.45  0.56  0.66  0.76  0.85  0.94  0.85  0.75  0.66  0.55  0.45  0.34  0.45  0.56  0.66  0.76  0.85  0.94
0.94  0.85  0.75  0.66  0.55  0.45  0.34  0.45  0.56  0.66  0.76  0.85  0.94  0.85  0.75  0.66  0.55  0.45  0.34  0.45  0.56  0.66  0.76  0.85  0.94
0.94  0.85  0.75  0.66  0.55  0.45  0.34  0.45  0.56  0.66  0.76  0.85  0.94  0.85  0.75  0.66  0.55  0.45  0.34  0.45  0.56  0.66  0.76  0.85  0.94
$beta by ik, ith
0.96  0.94  0.92  0.89  0.91  0.92  0.93  0.90  0.86  0.83  0.87  0.91  0.94  0.83  0.72  0.61  0.52  0.43  0.34  0.46  0.58  0.70  0.79  0.88  0.96
0.96  0.94  0.92  0.89  0.91  0.92  0.93  0.90  0.86  0.83  0.87  0.91  0.94  0.83  0.72  0.61  0.52  0.43  0.34  0.46  0.58  0.70  0.79  0.88  0.96
0.96  0.94  0.92  0.89  0.91  0.92  0.93  0.90  0.86  0.83  0.87  0.91  0.94  0.83  0.72  0.61  0.52  0.43  0.34  0.46  0.58  0.70  0.79  0.88  0.96
0.96  0.94  0.92  0.89  0.91  0.92  0.93  0.90  0.86  0.83  0.87  0.91  0.94  0.83  0.72  0.61  0.52  0.43  0.34  0.46  0.58  0.70  0.79  0.88  0.96
0.96  0.94  0.92  0.89  0.91  0.92  0.93  0.90  0.86  0.83  0.87  0.91  0.94  0.83  0.72  0.61  0.52  0.43  0.34  0.46  0.58  0.70  0.79  0.88  0.96
0.96  0.94  0.92  0.89  0.91  0.92  0.93  0.90  0.86  0.83  0.87  0.91  0.94  0.83  0.72  0.61  0.52  0.43  0.34  0.46  0.58  0.70  0.79  0.88  0.96
0.96  0.94  0.92  0.89  0.91  0.92  0.93  0.90  0.86  0.83  0.87  0.91  0.94  0.83  0.72  0.61  0.52  0.43  0.34  0.46  0.58  0.70  0.79  0.88  0.96
0.96  0.94  0.92  0.89  0.91  0.92  0.93  0.90  0.86  0.83  0.87  0.91  0.94  0.83  0.72  0.61  0.52  0.43  0.34  0.46  0.58  0.70  0.79  0.88  0.96
0.96  0.94  0.92  0.89  0.91  0.92  0.93  0.90  0.86  0.83  0.87  0.91  0.94  0.83  0.72  0.61  0.52  0.43  0.34  0.46  0.58  0.70  0.79  0.88  0.96
0.96  0.94  0.92  0.89  0.91  0.92  0.93  0.90  0.86  0.83  0.87  0.91  0.94  0.83  0.72  0.61  0.52  0.43  0.34  0.46  0.58  0.70  0.79  0.88  0.96
0.96  0.94  0.92  0.89  0.91  0.92  0.93  0.90  0.86  0.83  0.87  0.91  0.94  0.83  0.72  0.61  0.52  0.43  0.34  0.46  0.58  0.70  0.79  0.88  0.96
0.96  0.94  0.92  0.89  0.91  0.92  0.93  0.90  0.86  0.83  0.87  0.91  0.94  0.83  0.72  0.61  0.52  0.43  0.34  0.46  0.58  0.70  0.79  0.88  0.96
0.96  0.94  0.92  0.89  0.91  0.92  0.93  0.90  0.86  0.83  0.87  0.91  0.94  0.83  0.72  0.61  0.52  0.43  0.34  0.46  0.58  0.70  0.79  0.88  0.96
0.96  0.94  0.92  0.89  0.91  0.92  0.93  0.90  0.86  0.83  0.87  0.91  0.94  0.83  0.72  0.61  0.52  0.43  0.34  0.46  0.58  0.70  0.79  0.88  0.96
0.96  0.94  0.92  0.89  0.91  0.92  0.93  0.90  0.86  0.83  0.87  0.91  0.94  0.83  0.72  0.61  0.52  0.43  0.34  0.46  0.58  0.70  0.79  0.88  0.96
0.96  0.94  0.92  0.89  0.91  0.92  0.93  0.90  0.86  0.83  0.87  0.91  0.94  0.83  0.72  0.61  0.52  0.43  0.34  0.46  0.58  0.70  0.79  0.88  0.96
0.96  0.94  0.92  0.89  0.91  0.92  0.93  0.90  0.86  0.83  0.87  0.91  0.94  0.83  0.72  0.61  0.52  0.43  0.34  0.46  0.58  0.70  0.79  0.88  0.96
0.96  0.94  0.92  0.89  0.91  0.92  0.93  0.90  0.86  0.83  0.87  0.91  0.94  0.83  0.72  0.61  0.52  0.43  0.34  0.46  0.58  0.70  0.79  0.88  0.96
0.96  0.94  0.92  0.89  0.91  0.92  0.93  0.90  0.86  0.83  0.87  0.91  0.94  0.83  0.72  0.61  0.52  0.43  0.34  0.46  0.58  0.70  0.79  0.88  0.96
0.96  0.94  0.92  0.89  0.91  0.92  0.93  0.90  0.86  0.83  0.87  0.91  0.94  0.83  0.72  0.61  0.52  0.43  0.34  0.46  0.58  0.70  0.79  0.88  0.96
0.96  0.94  0.92  0.89  0.91  0.92  0.93  0.90  0.86  0.83  0.87  0.91  0.94  0.83  0.72  0.61  0.52  0.43  0.34  0.46  0.58  0.70  0.79  0.88  0.96
0.96  0.94  0.92  0.89  0.91  0.92  0.93  0.90  0.86  0.83  0.87  0.91  0.94  0.83  0.72  0.61  0.52  0.43  0.34  0.46  0.58  0.70  0.79  0.88  0.96
0.96  0.94  0.92  0.89  0.91  0.92  0.93  0.90  0.86  0.83  0.87  0.91  0.94  0.83  0.72  0.61  0.52  0.43  0.34  0.46  0.58  0.70  0.79  0.88  0.96
0.96  0.94  0.92  0.89  0.91  0.92  0.93  0.90  0.86  0.83  0.87  0.91  0.94  0.83  0.72  0.61  0.52  0.43  0.34  0.46  0.58  0.70  0.79  0.88  0.96
0.96  0.94  0.92  0.89  0.91  0.92  0.93  0.90  0.86  0.83  0.87  0.91  0.94  0.83  0.72  0.61  0.52  0.43  0.34  0.46  0.58  0.70  0.79  0.88  0.96
$ ilon ilat of the cell. lon: -88.5, 29.0
62   67
$ sizes of the cell in km
   146.091      163.947      187.770      221.726      200.575      183.854      166.792      183.854      200.575      221.726      187.770      163.947      146.091      163.947      187.770      221.726      200.575      183.854      166.792      183.854      200.575      221.726      187.770      163.947      146.091
$ mean alpha: 0.673333343506
$ mean beta: 0.771601277362
$alpha by ik, ith
0.50  0.57  0.64  0.71  0.74  0.78  0.81  0.78  0.74  0.71  0.64  0.57  0.50  0.57  0.64  0.71  0.74  0.78  0.81  0.78  0.74  0.71  0.64  0.57  0.50
0.50  0.57  0.64  0.71  0.74  0.78  0.81  0.78  0.74  0.71  0.64  0.57  0.50  0.57  0.64  0.71  0.74  0.78  0.81  0.78  0.74  0.71  0.64  0.57  0.50
0.50  0.57  0.64  0.71  0.74  0.78  0.81  0.78  0.74  0.71  0.64  0.57  0.50  0.57  0.64  0.71  0.74  0.78  0.81  0.78  0.74  0.71  0.64  0.57  0.50
0.50  0.57  0.64  0.71  0.74  0.78  0.81  0.78  0.74  0.71  0.64  0.57  0.50  0.57  0.64  0.71  0.74  0.78  0.81  0.78  0.74  0.71  0.64  0.57  0.50
0.50  0.57  0.64  0.71  0.74  0.78  0.81  0.78  0.74  0.71  0.64  0.57  0.50  0.57  0.64  0.71  0.74  0.78  0.81  0.78  0.74  0.71  0.64  0.57  0.50
0.50  0.57  0.64  0.71  0.74  0.78  0.81  0.78  0.74  0.71  0.64  0.57  0.50  0.57  0.64  0.71  0.74  0.78  0.81  0.78  0.74  0.71  0.64  0.57  0.50
0.50  0.57  0.64  0.71  0.74  0.78  0.81  0.78  0.74  0.71  0.64  0.57  0.50  0.57  0.64  0.71  0.74  0.78  0.81  0.78  0.74  0.71  0.64  0.57  0.50
0.50  0.57  0.64  0.71  0.74  0.78  0.81  0.78  0.74  0.71  0.64  0.57  0.50  0.57  0.64  0.71  0.74  0.78  0.81  0.78  0.74  0.71  0.64  0.57  0.50
0.50  0.57  0.64  0.71  0.74  0.78  0.81  0.78  0.74  0.71  0.64  0.57  0.50  0.57  0.64  0.71  0.74  0.78  0.81  0.78  0.74  0.71  0.64  0.57  0.50
0.50  0.57  0.64  0.71  0.74  0.78  0.81  0.78  0.74  0.71  0.64  0.57  0.50  0.57  0.64  0.71  0.74  0.78  0.81  0.78  0.74  0.71  0.64  0.57  0.50
0.50  0.57  0.64  0.71  0.74  0.78  0.81  0.78  0.74  0.71  0.64  0.57  0.50  0.57  0.64  0.71  0.74  0.78  0.81  0.78  0.74  0.71  0.64  0.57  0.50
0.50  0.57  0.64  0.71  0.74  0.78  0.81  0.78  0.74  0.71  0.64  0.57  0.50  0.57  0.64  0.71  0.74  0.78  0.81  0.78  0.74  0.71  0.64  0.57  0.50
0.50  0.57  0.64  0.71  0.74  0.78  0.81  0.78  0.74  0.71  0.64  0.57  0.50  0.57  0.64  0.71  0.74  0.78  0.81  0.78  0.74  0.71  0.64  0.57  0.50
0.50  0.57  0.64  0.71  0.74  0.78  0.81  0.78  0.74  0.71  0.64  0.57  0.50  0.57  0.64  0.71  0.74  0.78  0.81  0.78  0.74  0.71  0.64  0.57  0.50
0.50  0.57  0.64  0.71  0.74  0.78  0.81  0.78  0.74  0.71  0.64  0.57  0.50  0.57  0.64  0.71  0.74  0.78  0.81  0.78  0.74  0.71  0.64  0.57  0.50
0.50  0.57  0.64  0.71  0.74  0.78  0.81  0.78  0.74  0.71  0.64  0.57  0.50  0.57  0.64  0.71  0.74  0.78  0.81  0.78  0.74  0.71  0.64  0.57  0.50
0.50  0.57  0.64  0.71  0.74  0.78  0.81  0.78  0.74  0.71  0.64  0.57  0.50  0.57  0.64  0.71  0.74  0.78  0.81  0.78  0.74  0.71  0.64  0.57  0.50
0.50  0.57  0.64  0.71  0.74  0.78  0.81  0.78  0.74  0.71  0.64  0.57  0.50  0.57  0.64  0.71  0.74  0.78  0.81  0.78  0.74  0.71  0.64  0.57  0.50
0.50  0.57  0.64  0.71  0.74  0.78  0.81  0.78  0.74  0.71  0.64  0.57  0.50  0.57  0.64  0.71  0.74  0.78  0.81  0.78  0.74  0.71  0.64  0.57  0.50
0.50  0.57  0.64  0.71  0.74  0.78  0.81  0.78  0.74  0.71  0.64  0.57  0.50  0.57  0.64  0.71  0.74  0.78  0.81  0.78  0.74  0.71  0.64  0.57  0.50
0.50  0.57  0.64  0.71  0.74  0.78  0.81  0.78  0.74  0.71  0.64  0.57  0.50  0.57  0.64  0.71  0.74  0.78  0.81  0.78  0.74  0.71  0.64  0.57  0.50
0.50  0.57  0.64  0.71  0.74  0.78  0.81  0.78  0.74  0.71  0.64  0.57  0.50  0.57  0.64  0.71  0.74  0.78  0.81  0.78  0.74  0.71  0.64  0.57  0.50
0.50  0.57  0.64  0.71  0.74  0.78  0.81  0.78  0.74  0.71  0.64  0.57  0.50  0.57  0.64  0.71  0.74  0.78  0.81  0.78  0.74  0.71  0.64  0.57  0.50
0.50  0.57  0.64  0.71  0.74  0.78  0.81  0.78  0.74  0.71  0.64  0.57  0.50  0.57  0.64  0.71  0.74  0.78  0.81  0.78  0.74  0.71  0.64  0.57  0.50
0.50  0.57  0.64  0.71  0.74  0.78  0.81  0.78  0.74  0.71  0.64  0.57  0.50  0.57  0.64  0.71  0.74  0.78  0.81  0.78  0.74  0.71  0.64  0.57  0.50
$beta by ik, ith
0.50  0.58  0.67  0.75  0.81  0.86  0.91  0.91  0.91  0.92  0.92  0.92  0.92  0.88  0.85  0.82  0.82  0.81  0.81  0.75  0.70  0.64  0.59  0.55  0.50
0.50  0.58  0.67  0.75  0.81  0.86  0.91  0.91  0.91  0.92  0.92  0.92  0.92  0.88  0.85  0.82  0.82  0.81  0.81  0.75  0.70  0.64  0.59  0.55  0.50
0.50  0.58  0.67  0.75  0.81  0.86  0.91  0.91  0.91  0.92  0.92  0.92  0.92  0.88  0.85  0.82  0.82  0.81  0.81  0.75  0.70  0.64  0.59  0.55  0.50
0.50  0.58  0.67  0.75  0.81  0.86  0.91  0.91  0.91  0.92  0.92  0.92  0.92  0.88  0.85  0.82  0.82  0.81  0.81  0.75  0.70  0.64  0.59  0.55  0.50
0.50  0.58  0.67  0.75  0.81  0.86  0.91  0.91  0.91  0.92  0.92  0.92  0.92  0.88  0.85  0.82  0.82  0.81  0.81  0.75  0.70  0.64  0.59  0.55  0.50
0.50  0.58  0.67  0.75  0.81  0.86  0.91  0.91  0.91  0.92  0.92  0.92  0.92  0.88  0.85  0.82  0.82  0.81  0.81  0.75  0.70  0.64  0.59  0.55  0.50
0.50  0.58  0.67  0.75  0.81  0.86  0.91  0.91  0.91  0.92  0.92  0.92  0.92  0.88  0.85  0.82  0.82  0.81  0.81  0.75  0.70  0.64  0.59  0.55  0.50
0.50  0.58  0.67  0.75  0.81  0.86  0.91  0.91  0.91  0.92  0.92  0.92  0.92  0.88  0.85  0.82  0.82  0.81  0.81  0.75  0.70  0.64  0.59  0.55  0.50
0.50  0.58  0.67  0.75  0.81  0.86  0.91  0.91  0.91  0.92  0.92  0.92  0.92  0.88  0.85  0.82  0.82  0.81  0.81  0.75  0.70  0.64  0.59  0.55  0.50
0.50  0.58  0.67  0.75  0.81  0.86  0.91  0.91  0.91  0.92  0.92  0.92  0.92  0.88  0.85  0.82  0.82  0.81  0.81  0.75  0.70  0.64  0.59  0.55  0.50
0.50  0.58  0.67  0.75  0.81  0.86  0.91  0.91  0.91  0.92  0.92  0.92  0.92  0.88  0.85  0.82  0.82  0.81  0.81  0.75  0.70  0.64  0.59  0.55  0.50
0.50  0.58  0.67  0.75  0.81  0.86  0.91  0.91  0.91  0.92  0.92  0.92  0.92  0.88  0.85  0.82  0.82  0.81  0.81  0.75  0.70  0.64  0.59  0.55  0.50
0.50  0.58  0.67  0.75  0.81  0.86  0.91  0.91  0.91  0.92  0.92  0.92  0.92  0.88  0.85  0.82  0.82  0.81  0.81  0.75  0.70  0.64  0.59  0.55  0.50
0.50  0.58  0.67  0.75  0.81  0.86  0.91  0.91  0.91  0.92  0.92  0.92  0.92  0.88  0.85  0.82  0.82  0.81  0.81  0.75  0.70  0.64  0.59  0.55  0.50
0.50  0.58  0.67  0.75  0.81  0.86  0.91  0.91  0.91  0.92  0.92  0.92  0.92  0.88  0.85  0.82  0.82  0.81  0.81  0.75  0.70  0.64  0.59  0.55  0.50
0.50  0.58  0.67  0.75  0.81  0.86  0.91  0.91  0.91  0.92  0.92  0.92  0.92  0.88  0.85  0.82  0.82  0.81  0.81  0.75  0.70  0.64  0.59  0.55  0.50
0.50  0.58  0.67  0.75  0.81  0.86  0.91  0.91  0.91  0.92  0.92  0.92  0.92  0.88  0.85  0.82  0.82  0.81  0.81  0.75  0.70  0.64  0.59  0.55  0.50
0.50  0.58  0.67  0.75  0.81  0.86  0.91  0.91  0.91  0.92  0.92  0.92  0.92  0.88  0.85  0.82  0.82  0.81  0.81  0.75  0.70  0.64  0.59  0.55  0.50
0.50  0.58  0.67  0.75  0.81  0.86  0.91  0.91  0.91  0.92  0.92  0.92  0.92  0.88  0.85  0.82  0.82  0.81  0.81  0.75  0.70  0.64  0.59  0.55  0.50
0.50  0.58  0.67  0.75  0.81  0.86  0.91  0.91  0.91  0.92  0.92  0.92  0.92  0.88  0.85  0.82  0.82  0.81  0.81  0.75  0.70  0.64  0.59  0.55  0.50
0.50  0.58  0.67  0.75  0.81  0.86  0.91  0.91  0.91  0.92  0.92  0.92  0.92  0.88  0.85  0.82  0.82  0.81  0.81  0.75  0.70  0.64  0.59  0.55  0.50
0.50  0.58  0.67  0.75  0.81  0.86  0.91  0.91  0.91  0.92  0.92  0.92  0.92  0.88  0.85  0.82  0.82  0.81  0.81  0.75  0.70  0.64  0.59  0.55  0.50
0.50  0.58  0.67  0.75  0.81  0.86  0.91  0.91  0.91  0.92  0.92  0.92  0.92  0.88  0.85  0.82  0.82  0.81  0.81  0.75  0.70  0.64  0.59  0.55  0.50
0.50  0.58  0.67  0.75  0.81  0.86  0.91  0.91  0.91  0.92  0.92  0.92  0.92  0.88  0.85  0.82  0.82  0.81  0.81  0.75  0.70  0.64  0.59  0.55  0.50
0.50  0.58  0.67  0.75  0.81  0.86  0.91  0.91  0.91  0.92  0.92  0.92  0.92  0.88  0.85  0.82  0.82  0.81  0.81  0.75  0.70  0.64  0.59  0.55  0.50
$ ilon ilat of the cell. lon: -87.0, 11.0
63   55
$ sizes of the cell in km
   163.811      182.216      203.915      233.781      205.763      185.084      166.792      185.084      205.763      233.781      203.915      182.216      163.811      182.216      203.915      233.781      205.763      185.084      166.792      185.084      205.763      233.781      203.915      182.216      163.811
$ mean alpha: 0.894666732788
$ mean beta: 0.93659568333
$alpha by ik, ith
0.90  0.89  0.89  0.88  0.88  0.87  0.87  0.89  0.91  0.93  0.92  0.91  0.90  0.89  0.89  0.88  0.88  0.87  0.87  0.89  0.91  0.93  0.92  0.91  0.90
0.90  0.89  0.89  0.88  0.88  0.87  0.87  0.89  0.91  0.93  0.92  0.91  0.90  0.89  0.89  0.88  0.88  0.87  0.87  0.89  0.91  0.93  0.92  0.91  0.90
0.90  0.89  0.89  0.88  0.88  0.87  0.87  0.89  0.91  0.93  0.92  0.91  0.90  0.89  0.89  0.88  0.88  0.87  0.87  0.89  0.91  0.93  0.92  0.91  0.90
0.90  0.89  0.89  0.88  0.88  0.87  0.87  0.89  0.91  0.93  0.92  0.91  0.90  0.89  0.89  0.88  0.88  0.87  0.87  0.89  0.91  0.93  0.92  0.91  0.90
0.90  0.89  0.89  0.88  0.88  0.87  0.87  0.89  0.91  0.93  0.92  0.91  0.90  0.89  0.89  0.88  0.88  0.87  0.87  0.89  0.91  0.93  0.92  0.91  0.90
0.90  0.89  0.89  0.88  0.88  0.87  0.87  0.89  0.91  0.93  0.92  0.91  0.90  0.89  0.89  0.88  0.88  0.87  0.87  0.89  0.91  0.93  0.92  0.91  0.90
0.90  0.89  0.89  0.88  0.88  0.87  0.87  0.89  0.91  0.93  0.92  0.91  0.90  0.89  0.89  0.88  0.88  0.87  0.87  0.89  0.91  0.93  0.92  0.91  0.90
0.90  0.89  0.89  0.88  0.88  0.87  0.87  0.89  0.91  0.93  0.92  0.91  0.90  0.89  0.89  0.88  0.88  0.87  0.87  0.89  0.91  0.93  0.92  0.91  0.90
0.90  0.89  0.89  0.88  0.88  0.87  0.87  0.89  0.91  0.93  0.92  0.91  0.90  0.89  0.89  0.88  0.88  0.87  0.87  0.89  0.91  0.93  0.92  0.91  0.90
0.90  0.89  0.89  0.88  0.88  0.87  0.87  0.89  0.91  0.93  0.92  0.91  0.90  0.89  0.89  0.88  0.88  0.87  0.87  0.89  0.91  0.93  0.92  0.91  0.90
0.90  0.89  0.89  0.88  0.88  0.87  0.87  0.89  0.91  0.93  0.92  0.91  0.90  0.89  0.89  0.88  0.88  0.87  0.87  0.89  0.91  0.93  0.92  0.91  0.90
0.90  0.89  0.89  0.88  0.88  0.87  0.87  0.89  0.91  0.93  0.92  0.91  0.90  0.89  0.89  0.88  0.88  0.87  0.87  0.89  0.91  0.93  0.92  0.91  0.90
0.90  0.89  0.89  0.88  0.88  0.87  0.87  0.89  0.91  0.93  0.92  0.91  0.90  0.89  0.89  0.88  0.88  0.87  0.87  0.89  0.91  0.93  0.92  0.91  0.90
0.90  0.89  0.89  0.88  0.88  0.87  0.87  0.89  0.91  0.93  0.92  0.91  0.90  0.89  0.89  0.88  0.88  0.87  0.87  0.89  0.91  0.93  0.92  0.91  0.90
0.90  0.89  0.89  0.88  0.88  0.87  0.87  0.89  0.91  0.93  0.92  0.91  0.90  0.89  0.89  0.88  0.88  0.87  0.87  0.89  0.91  0.93  0.92  0.91  0.90
0.90  0.89  0.89  0.88  0.88  0.87  0.87  0.89  0.91  0.93  0.92  0.91  0.90  0.89  0.89  0.88  0.88  0.87  0.87  0.89  0.91  0.93  0.92  0.91  0.90
0.90  0.89  0.89  0.88  0.88  0.87  0.87  0.89  0.91  0.93  0.92  0.91  0.90  0.89  0.89  0.88  0.88  0.87  0.87  0.89  0.91  0.93  0.92  0.91  0.90
0.90  0.89  0.89  0.88  0.88  0.87  0.87  0.89  0.91  0.93  0.92  0.91  0.90  0.89  0.89  0.88  0.88  0.87  0.87  0.89  0.91  0.93  0.92  0.91  0.90
0.90  0.89  0.89  0.88  0.88  0.87  0.87  0.89  0.91  0.93  0.92  0.91  0.90  0.89  0.89  0.88  0.88  0.87  0.87  0.89  0.91  0.93  0.92  0.91  0.90
0.90  0.89  0.89  0.88  0.88  0.87  0.87  0.89  0.91  0.93  0.92  0.91  0.90  0.89  0.89  0.88  0.88  0.87  0.87  0.89  0.91  0.93  0.92  0.91  0.90
0.90  0.89  0.89  0.88  0.88  0.87  0.87  0.89  0.91  0.93  0.92  0.91  0.90  0.89  0.89  0.88  0.88  0.87  0.87  0.89  0.91  0.93  0.92  0.91  0.90
0.90  0.89  0.89  0.88  0.88  0.87  0.87  0.89  0.91  0.93  0.92  0.91  0.90  0.89  0.89  0.88  0.88  0.87  0.87  0.89  0.91  0.93  0.92  0.91  0.90
0.90  0.89  0.89  0.88  0.88  0.87  0.87  0.89  0.91  0.93  0.92  0.91  0.90  0.89  0.89  0.88  0.88  0.87  0.87  0.89  0.91  0.93  0.92  0.91  0.90
0.90  0.89  0.89  0.88  0.88  0.87  0.87  0.89  0.91  0.93  0.92  0.91  0.90  0.89  0.89  0.88  0.88  0.87  0.87  0.89  0.91  0.93  0.92  0.91  0.90
0.90  0.89  0.89  0.88  0.88  0.87  0.87  0.89  0.91  0.93  0.92  0.91  0.90  0.89  0.89  0.88  0.88  0.87  0.87  0.89  0.91  0.93  0.92  0.91  0.90
$beta by ik, ith
0.99  0.99  0.99  0.98  0.98  0.99  0.99  0.97  0.96  0.95  0.94  0.92  0.90  0.88  0.87  0.85  0.86  0.86  0.87  0.89  0.92  0.95  0.96  0.97  0.99
0.99  0.99  0.99  0.98  0.98  0.99  0.99  0.97  0.96  0.95  0.94  0.92  0.90  0.88  0.87  0.85  0.86  0.86  0.87  0.89  0.92  0.95  0.96  0.97  0.99
0.99  0.99  0.99  0.98  0.98  0.99  0.99  0.97  0.96  0.95  0.94  0.92  0.90  0.88  0.87  0.85  0.86  0.86  0.87  0.89  0.92  0.95  0.96  0.97  0.99
0.99  0.99  0.99  0.98  0.98  0.99  0.99  0.97  0.96  0.95  0.94  0.92  0.90  0.88  0.87  0.85  0.86  0.86  0.87  0.89  0.92  0.95  0.96  0.97  0.99
0.99  0.99  0.99  0.98  0.98  0.99  0.99  0.97  0.96  0.95  0.94  0.92  0.90  0.88  0.87  0.85  0.86  0.86  0.87  0.89  0.92  0.95  0.96  0.97  0.99
0.99  0.99  0.99  0.98  0.98  0.99  0.99  0.97  0.96  0.95  0.94  0.92  0.90  0.88  0.87  0.85  0.86  0.86  0.87  0.89  0.92  0.95  0.96  0.97  0.99
0.99  0.99  0.99  0.98  0.98  0.99  0.99  0.97  0.96  0.95  0.94  0.92  0.90  0.88  0.87  0.85  0.86  0.86  0.87  0.89  0.92  0.95  0.96  0.97  0.99
0.99  0.99  0.99  0.98  0.98  0.99  0.99  0.97  0.96  0.95  0.94  0.92  0.90  0.88  0.87  0.85  0.86  0.86  0.87  0.89  0.92  0.95  0.96  0.97  0.99
0.99  0.99  0.99  0.98  0.98  0.99  0.99  0.97  0.96  0.95  0.94  0.92  0.90  0.88  0.87  0.85  0.86  0.86  0.87  0.89  0.92  0.95  0.96  0.97  0.99
0.99  0.99  0.99  0.98  0.98  0.99  0.99  0.97  0.96  0.95  0.94  0.92  0.90  0.88  0.87  0.85  0.86  0.86  0.87  0.89  0.92  0.95  0.96  0.97  0.99
0.99  0.99  0.99  0.98  0.98  0.99  0.99  0.97  0.96  0.95  0.94  0.92  0.90  0.88  0.87  0.85  0.86  0.86  0.87  0.89  0.92  0.95  0.96  0.97  0.99
0.99  0.99  0.99  0.98  0.98  0.99  0.99  0.97  0.96  0.95  0.94  0.92  0.90  0.88  0.87  0.85  0.86  0.86  0.87  0.89  0.92  0.95  0.96  0.97  0.99
0.99  0.99  0.99  0.98  0.98  0.99  0.99  0.97  0.96  0.95  0.94  0.92  0.90  0.88  0.87  0.85  0.86  0.86  0.87  0.89  0.92  0.95  0.96  0.97  0.99
0.99  0.99  0.99  0.98  0.98  0.99  0.99  0.97  0.96  0.95  0.94  0.92  0.90  0.88  0.87  0.85  0.86  0.86  0.87  0.89  0.92  0.95  0.96  0.97  0.99
0.99  0.99  0.99  0.98  0.98  0.99  0.99  0.97  0.96  0.95  0.94  0.92  0.90  0.88  0.87  0.85  0.86  0.86  0.87  0.89  0.92  0.95  0.96  0.97  0.99
0.99  0.99  0.99  0.98  0.98  0.99  0.99  0.97  0.96  0.95  0.94  0.92  0.90  0.88  0.87  0.85  0.86  0.86  0.87  0.89  0.92  0.95  0.96  0.97  0.99
0.99  0.99  0.99  0.98  0.98  0.99  0.99  0.97  0.96  0.95  0.94  0.92  0.90  0.88  0.87  0.85  0.86  0.86  0.87  0.89  0.92  0.95  0.96  0.97  0.99
0.99  0.99  0.99  0.98  0.98  0.99  0.99  0.97  0.96  0.95  0.94  0.92  0.90  0.88  0.87  0.85  0.86  0.86  0.87  0.89  0.92  0.95  0.96  0.97  0.99
0.99  0.99  0.99  0.98  0.98  0.99  0.99  0.97  0.96  0.95  0.94  0.92  0.90  0.88  0.87  0.85  0.86  0.86  0.87  0.89  0.92  0.95  0.96  0.97  0.99
0.99  0.99  0.99  0.98  0.98  0.99  0.99  0.97  0.96  0.95  0.94  0.92  0.90  0.88  0.87  0.85  0.86  0.86  0.87  0.89  0.92  0.95  0.96  0.97  0.99
0.99  0.99  0.99  0.98  0.98  0.99  0.99  0.97  0.96  0.95  0.94  0.92  0.90  0.88  0.87  0.85  0.86  0.86  0.87  0.89  0.92  0.95  0.96  0.97  0.99
0.99  0.99  0.99  0.98  0.98  0.99  0.99  0.97  0.96  0.95  0.94  0.92  0.90  0.88  0.87  0.85  0.86  0.86  0.87  0.89  0.92  0.95  0.96  0.97  0.99
0.99  0.99  0.99  0.98  0.98  0.99  0.99  0.97  0.96  0.95  0.94  0.92  0.90  0.88  0.87  0.85  0.86  0.86  0.87  0.89  0.92  0.95  0.96  0.97  0.99
0.99  0.99  0.99  0.98  0.98  0.99  0.99  0.97  0.96  0.95  0.94  0.92  0.90  0.88  0.87  0.85  0.86  0.86  0.87  0.89  0.92  0.95  0.96  0.97  0.99
0.99  0.99  0.99  0.98  0.98  0.99  0.99  0.97  0.96  0.95  0.94  0.92  0.90  0.88  0.87  0.85  0.86  0.86  0.87  0.89  0.92  0.95  0.96  0.97  0.99
$ ilon ilat of the cell. lon: -87.0, 17.0
63   59
$ sizes of the cell in km
   159.631      177.893      200.062      230.872      204.498      184.782      166.792      184.782      204.498      230.872      200.062      177.893      159.631      177.893      200.062      230.872      204.498      184.782      166.792      184.782      204.498      230.872      200.062      177.893      159.631
$ mean alpha: 0.719110168457
$ mean beta: 0.815443383787
$alpha by ik, ith
0.68  0.72  0.76  0.79  0.74  0.69  0.64  0.69  0.73  0.77  0.74  0.71  0.68  0.72  0.76  0.79  0.74  0.69  0.64  0.69  0.73  0.77  0.74  0.71  0.68
0.68  0.72  0.76  0.79  0.74  0.69  0.64  0.69  0.73  0.77  0.74  0.71  0.68  0.72  0.76  0.79  0.74  0.69  0.64  0.69  0.73  0.77  0.74  0.71  0.68
0.68  0.72  0.76  0.79  0.74  0.69  0.64  0.69  0.73  0.77  0.74  0.71  0.68  0.72  0.76  0.79  0.74  0.69  0.64  0.69  0.73  0.77  0.74  0.71  0.68
0.68  0.72  0.76  0.79  0.74  0.69  0.64  0.69  0.73  0.77  0.74  0.71  0.68  0.72  0.76  0.79  0.74  0.69  0.64  0.69  0.73  0.77  0.74  0.71  0.68
0.68  0.72  0.76  0.79  0.74  0.69  0.64  0.69  0.73  0.77  0.74  0.71  0.68  0.72  0.76  0.79  0.74  0.69  0.64  0.69  0.73  0.77  0.74  0.71  0.68
0.68  0.72  0.76  0.79  0.74  0.69  0.64  0.69  0.73  0.77  0.74  0.71  0.68  0.72  0.76  0.79  0.74  0.69  0.64  0.69  0.73  0.77  0.74  0.71  0.68
0.68  0.72  0.76  0.79  0.74  0.69  0.64  0.69  0.73  0.77  0.74  0.71  0.68  0.72  0.76  0.79  0.74  0.69  0.64  0.69  0.73  0.77  0.74  0.71  0.68
0.68  0.72  0.76  0.79  0.74  0.69  0.64  0.69  0.73  0.77  0.74  0.71  0.68  0.72  0.76  0.79  0.74  0.69  0.64  0.69  0.73  0.77  0.74  0.71  0.68
0.68  0.72  0.76  0.79  0.74  0.69  0.64  0.69  0.73  0.77  0.74  0.71  0.68  0.72  0.76  0.79  0.74  0.69  0.64  0.69  0.73  0.77  0.74  0.71  0.68
0.68  0.72  0.76  0.79  0.74  0.69  0.64  0.69  0.73  0.77  0.74  0.71  0.68  0.72  0.76  0.79  0.74  0.69  0.64  0.69  0.73  0.77  0.74  0.71  0.68
0.68  0.72  0.76  0.79  0.74  0.69  0.64  0.69  0.73  0.77  0.74  0.71  0.68  0.72  0.76  0.79  0.74  0.69  0.64  0.69  0.73  0.77  0.74  0.71  0.68
0.68  0.72  0.76  0.79  0.74  0.69  0.64  0.69  0.73  0.77  0.74  0.71  0.68  0.72  0.76  0.79  0.74  0.69  0.64  0.69  0.73  0.77  0.74  0.71  0.68
0.68  0.72  0.76  0.79  0.74  0.69  0.64  0.69  0.73  0.77  0.74  0.71  0.68  0.72  0.76  0.79  0.74  0.69  0.64  0.69  0.73  0.77  0.74  0.71  0.68
0.68  0.72  0.76  0.79  0.74  0.69  0.64  0.69  0.73  0.77  0.74  0.71  0.68  0.72  0.76  0.79  0.74  0.69  0.64  0.69  0.73  0.77  0.74  0.71  0.68
0.68  0.72  0.76  0.79  0.74  0.69  0.64  0.69  0.73  0.77  0.74  0.71  0.68  0.72  0.76  0.79  0.74  0.69  0.64  0.69  0.73  0.77  0.74  0.71  0.68
0.68  0.72  0.76  0.79  0.74  0.69  0.64  0.69  0.73  0.77  0.74  0.71  0.68  0.72  0.76  0.79  0.74  0.69  0.64  0.69  0.73  0.77  0.74  0.71  0.68
0.68  0.72  0.76  0.79  0.74  0.69  0.64  0.69  0.73  0.77  0.74  0.71  0.68  0.72  0.76  0.79  0.74  0.69  0.64  0.69  0.73  0.77  0.74  0.71  0.68
0.68  0.72  0.76  0.79  0.74  0.69  0.64  0.69  0.73  0.77  0.74  0.71  0.68  0.72  0.76  0.79  0.74  0.69  0.64  0.69  0.73  0.77  0.74  0.71  0.68
0.68  0.72  0.76  0.79  0.74  0.69  0.64  0.69  0.73  0.77  0.74  0.71  0.68  0.72  0.76  0.79  0.74  0.69  0.64  0.69  0.73  0.77  0.74  0.71  0.68
0.68  0.72  0.76  0.79  0.74  0.69  0.64  0.69  0.73  0.77  0.74  0.71  0.68  0.72  0.76  0.79  0.74  0.69  0.64  0.69  0.73  0.77  0.74  0.71  0.68
0.68  0.72  0.76  0.79  0.74  0.69  0.64  0.69  0.73  0.77  0.74  0.71  0.68  0.72  0.76  0.79  0.74  0.69  0.64  0.69  0.73  0.77  0.74  0.71  0.68
0.68  0.72  0.76  0.79  0.74  0.69  0.64  0.69  0.73  0.77  0.74  0.71  0.68  0.72  0.76  0.79  0.74  0.69  0.64  0.69  0.73  0.77  0.74  0.71  0.68
0.68  0.72  0.76  0.79  0.74  0.69  0.64  0.69  0.73  0.77  0.74  0.71  0.68  0.72  0.76  0.79  0.74  0.69  0.64  0.69  0.73  0.77  0.74  0.71  0.68
0.68  0.72  0.76  0.79  0.74  0.69  0.64  0.69  0.73  0.77  0.74  0.71  0.68  0.72  0.76  0.79  0.74  0.69  0.64  0.69  0.73  0.77  0.74  0.71  0.68
0.68  0.72  0.76  0.79  0.74  0.69  0.64  0.69  0.73  0.77  0.74  0.71  0.68  0.72  0.76  0.79  0.74  0.69  0.64  0.69  0.73  0.77  0.74  0.71  0.68
$beta by ik, ith
0.79  0.81  0.83  0.84  0.80  0.76  0.72  0.73  0.74  0.75  0.78  0.81  0.84  0.85  0.86  0.87  0.87  0.87  0.87  0.86  0.85  0.85  0.83  0.81  0.79
0.79  0.81  0.83  0.84  0.80  0.76  0.72  0.73  0.74  0.75  0.78  0.81  0.84  0.85  0.86  0.87  0.87  0.87  0.87  0.86  0.85  0.85  0.83  0.81  0.79
0.79  0.81  0.83  0.84  0.80  0.76  0.72  0.73  0.74  0.75  0.78  0.81  0.84  0.85  0.86  0.87  0.87  0.87  0.87  0.86  0.85  0.85  0.83  0.81  0.79
0.79  0.81  0.83  0.84  0.80  0.76  0.72  0.73  0.74  0.75  0.78  0.81  0.84  0.85  0.86  0.87  0.87  0.87  0.87  0.86  0.85  0.85  0.83  0.81  0.79
0.79  0.81  0.83  0.84  0.80  0.76  0.72  0.73  0.74  0.75  0.78  0.81  0.84  0.85  0.86  0.87  0.87  0.87  0.87  0.86  0.85  0.85  0.83  0.81  0.79
0.79  0.81  0.83  0.84  0.80  0.76  0.72  0.73  0.74  0.75  0.78  0.81  0.84  0.85  0.86  0.87  0.87  0.87  0.87  0.86  0.85  0.85  0.83  0.81  0.79
0.79  0.81  0.83  0.84  0.80  0.76  0.72  0.73  0.74  0.75  0.78  0.81  0.84  0.85  0.86  0.87  0.87  0.87  0.87  0.86  0.85  0.85  0.83  0.81  0.79
0.79  0.81  0.83  0.84  0.80  0.76  0.72  0.73  0.74  0.75  0.78  0.81  0.84  0.85  0.86  0.87  0.87  0.87  0.87  0.86  0.85  0.85  0.83  0.81  0.79
0.79  0.81  0.83  0.84  0.80  0.76  0.72  0.73  0.74  0.75  0.78  0.81  0.84  0.85  0.86  0.87  0.87  0.87  0.87  0.86  0.85  0.85  0.83  0.81  0.79
0.79  0.81  0.83  0.84  0.80  0.76  0.72  0.73  0.74  0.75  0.78  0.81  0.84  0.85  0.86  0.87  0.87  0.87  0.87  0.86  0.85  0.85  0.83  0.81  0.79
0.79  0.81  0.83  0.84  0.80  0.76  0.72  0.73  0.74  0.75  0.78  0.81  0.84  0.85  0.86  0.87  0.87  0.87  0.87  0.86  0.85  0.85  0.83  0.81  0.79
0.79  0.81  0.83  0.84  0.80  0.76  0.72  0.73  0.74  0.75  0.78  0.81  0.84  0.85  0.86  0.87  0.87  0.87  0.87  0.86  0.85  0.85  0.83  0.81  0.79
0.79  0.81  0.83  0.84  0.80  0.76  0.72  0.73  0.74  0.75  0.78  0.81  0.84  0.85  0.86  0.87  0.87  0.87  0.87  0.86  0.85  0.85  0.83  0.81  0.79
0.79  0.81  0.83  0.84  0.80  0.76  0.72  0.73  0.74  0.75  0.78  0.81  0.84  0.85  0.86  0.87  0.87  0.87  0.87  0.86  0.85  0.85  0.83  0.81  0.79
0.79  0.81  0.83  0.84  0.80  0.76  0.72  0.73  0.74  0.75  0.78  0.81  0.84  0.85  0.86  0.87  0.87  0.87  0.87  0.86  0.85  0.85  0.83  0.81  0.79
0.79  0.81  0.83  0.84  0.80  0.76  0.72  0.73  0.74  0.75  0.78  0.81  0.84  0.85  0.86  0.87  0.87  0.87  0.87  0.86  0.85  0.85  0.83  0.81  0.79
0.79  0.81  0.83  0.84  0.80  0.76  0.72  0.73  0.74  0.75  0.78  0.81  0.84  0.85  0.86  0.87  0.87  0.87  0.87  0.86  0.85  0.85  0.83  0.81  0.79
0.79  0.81  0.83  0.84  0.80  0.76  0.72  0.73  0.74  0.75  0.78  0.81  0.84  0.85  0.86  0.87  0.87  0.87  0.87  0.86  0.85  0.85  0.83  0.81  0.79
0.79  0.81  0.83  0.84  0.80  0.76  0.72  0.73  0.74  0.75  0.78  0.81  0.84  0.85  0.86  0.87  0.87  0.87  0.87  0.86  0.85  0.85  0.83  0.81  0.79
0.79  0.81  0.83  0.84  0.80  0.76  0.72  0.73  0.74  0.75  0.78  0.81  0.84  0.85  0.86  0.87  0.87  0.87  0.87  0.86  0.85  0.85  0.83  0.81  0.79
0.79  0.81  0.83  0.84  0.80  0.76  0.72  0.73  0.74  0.75  0.78  0.81  0.84  0.85  0.86  0.87  0.87  0.87  0.87  0.86  0.85  0.85  0.83  0.81  0.79
0.79  0.81  0.83  0.84  0.80  0.76  0.72  0.73  0.74  0.75  0.78  0.81  0.84  0.85  0.86  0.87  0.87  0.87  0.87  0.86  0.85  0.85  0.83  0.81  0.79
0.79  0.81  0.83  0.84  0.80  0.76  0.72  0.73  0.74  0.75  0.78  0.81  0.84  0.85  0.86  0.87  0.87  0.87  0.87  0.86  0.85  0.85  0.83  0.81  0.79
0.79  0.81  0.83  0.84  0.80  0.76  0.72  0.73  0.74  0.75  0.78  0.81  0.84  0.85  0.86  0.87  0.87  0.87  0.87  0.86  0.85  0.85  0.83  0.81  0.79
0.79  0.81  0.83  0.84  0.80  0.76  0.72  0.73  0.74  0.75  0.78  0.81  0.84  0.85  0.86  0.87  0.87  0.87  0.87  0.86  0.85  0.85  0.83  0.81  0.79
$ ilon ilat of the cell. lon: -87.0, 18.5
63   60
$ sizes of the cell in km
   158.311      176.529      198.850      229.961      204.104      184.688      166.792      184.688      204.104      229.961      198.850      176.529      158.311      176.529      198.850      229.961      204.104      184.688      166.792      184.688      204.104      229.961      198.850      176.529      158.311
$ mean alpha: 0.644888702393
$ mean beta: 0.757692958423
$alpha by ik, ith
[...]
0.87  0.89  0.90  0.92  0.89  0.86  0.83  0.84  0.85  0.86  0.86  0.86  0.87  0.89  0.90  0.92  0.89  0.86  0.83  0.84  0.85  0.86  0.86  0.86  0.87
0.87  0.89  0.90  0.92  0.89  0.86  0.83  0.84  0.85  0.86  0.86  0.86  0.87  0.89  0.90  0.92  0.89  0.86  0.83  0.84  0.85  0.86  0.86  0.86  0.87
$beta by ik, ith
0.87  0.89  0.91  0.93  0.93  0.93  0.93  0.94  0.95  0.95  0.96  0.97  0.98  0.97  0.96  0.96  0.93  0.90  0.87  0.86  0.85  0.84  0.85  0.86  0.87
0.87  0.89  0.91  0.93  0.93  0.93  0.93  0.94  0.95  0.95  0.96  0.97  0.98  0.97  0.96  0.96  0.93  0.90  0.87  0.86  0.85  0.84  0.85  0.86  0.87
0.87  0.89  0.91  0.93  0.93  0.93  0.93  0.94  0.95  0.95  0.96  0.97  0.98  0.97  0.96  0.96  0.93  0.90  0.87  0.86  0.85  0.84  0.85  0.86  0.87
0.87  0.89  0.91  0.93  0.93  0.93  0.93  0.94  0.95  0.95  0.96  0.97  0.98  0.97  0.96  0.96  0.93  0.90  0.87  0.86  0.85  0.84  0.85  0.86  0.87
0.87  0.89  0.91  0.93  0.93  0.93  0.93  0.94  0.95  0.95  0.96  0.97  0.98  0.97  0.96  0.96  0.93  0.90  0.87  0.86  0.85  0.84  0.85  0.86  0.87
0.87  0.89  0.91  0.93  0.93  0.93  0.93  0.94  0.95  0.95  0.96  0.97  0.98  0.97  0.96  0.96  0.93  0.90  0.87  0.86  0.85  0.84  0.85  0.86  0.87
0.87  0.89  0.91  0.93  0.93  0.93  0.93  0.94  0.95  0.95  0.96  0.97  0.98  0.97  0.96  0.96  0.93  0.90  0.87  0.86  0.85  0.84  0.85  0.86  0.87
0.87  0.89  0.91  0.93  0.93  0.93  0.93  0.94  0.95  0.95  0.96  0.97  0.98  0.97  0.96  0.96  0.93  0.90  0.87  0.86  0.85  0.84  0.85  0.86  0.87
0.87  0.89  0.91  0.93  0.93  0.93  0.93  0.94  0.95  0.95  0.96  0.97  0.98  0.97  0.96  0.96  0.93  0.90  0.87  0.86  0.85  0.84  0.85  0.86  0.87
0.87  0.89  0.91  0.93  0.93  0.93  0.93  0.94  0.95  0.95  0.96  0.97  0.98  0.97  0.96  0.96  0.93  0.90  0.87  0.86  0.85  0.84  0.85  0.86  0.87
0.87  0.89  0.91  0.93  0.93  0.93  0.93  0.94  0.95  0.95  0.96  0.97  0.98  0.97  0.96  0.96  0.93  0.90  0.87  0.86  0.85  0.84  0.85  0.86  0.87
0.87  0.89  0.91  0.93  0.93  0.93  0.93  0.94  0.95  0.95  0.96  0.97  0.98  0.97  0.96  0.96  0.93  0.90  0.87  0.86  0.85  0.84  0.85  0.86  0.87
0.87  0.89  0.91  0.93  0.93  0.93  0.93  0.94  0.95  0.95  0.96  0.97  0.98  0.97  0.96  0.96  0.93  0.90  0.87  0.86  0.85  0.84  0.85  0.86  0.87
0.87  0.89  0.91  0.93  0.93  0.93  0.93  0.94  0.95  0.95  0.96  0.97  0.98  0.97  0.96  0.96  0.93  0.90  0.87  0.86  0.85  0.84  0.85  0.86  0.87
0.87  0.89  0.91  0.93  0.93  0.93  0.93  0.94  0.95  0.95  0.96  0.97  0.98  0.97  0.96  0.96  0.93  0.90  0.87  0.86  0.85  0.84  0.85  0.86  0.87
0.87  0.89  0.91  0.93  0.93  0.93  0.93  0.94  0.95  0.95  0.96  0.97  0.98  0.97  0.96  0.96  0.93  0.90  0.87  0.86  0.85  0.84  0.85  0.86  0.87
0.87  0.89  0.91  0.93  0.93  0.93  0.93  0.94  0.95  0.95  0.96  0.97  0.98  0.97  0.96  0.96  0.93  0.90  0.87  0.86  0.85  0.84  0.85  0.86  0.87
0.87  0.89  0.91  0.93  0.93  0.93  0.93  0.94  0.95  0.95  0.96  0.97  0.98  0.97  0.96  0.96  0.93  0.90  0.87  0.86  0.85  0.84  0.85  0.86  0.87
0.87  0.89  0.91  0.93  0.93  0.93  0.93  0.94  0.95  0.95  0.96  0.97  0.98  0.97  0.96  0.96  0.93  0.90  0.87  0.86  0.85  0.84  0.85  0.86  0.87
0.87  0.89  0.91  0.93  0.93  0.93  0.93  0.94  0.95  0.95  0.96  0.97  0.98  0.97  0.96  0.96  0.93  0.90  0.87  0.86  0.85  0.84  0.85  0.86  0.87
0.87  0.89  0.91  0.93  0.93  0.93  0.93  0.94  0.95  0.95  0.96  0.97  0.98  0.97  0.96  0.96  0.93  0.90  0.87  0.86  0.85  0.84  0.85  0.86  0.87
0.87  0.89  0.91  0.93  0.93  0.93  0.93  0.94  0.95  0.95  0.96  0.97  0.98  0.97  0.96  0.96  0.93  0.90  0.87  0.86  0.85  0.84  0.85  0.86  0.87
0.87  0.89  0.91  0.93  0.93  0.93  0.93  0.94  0.95  0.95  0.96  0.97  0.98  0.97  0.96  0.96  0.93  0.90  0.87  0.86  0.85  0.84  0.85  0.86  0.87
0.87  0.89  0.91  0.93  0.93  0.93  0.93  0.94  0.95  0.95  0.96  0.97  0.98  0.97  0.96  0.96  0.93  0.90  0.87  0.86  0.85  0.84  0.85  0.86  0.87
0.87  0.89  0.91  0.93  0.93  0.93  0.93  0.94  0.95  0.95  0.96  0.97  0.98  0.97  0.96  0.96  0.93  0.90  0.87  0.86  0.85  0.84  0.85  0.86  0.87
$ ilon ilat of the cell. lon: -60.0, 12.5
81   56
$ sizes of the cell in km
   162.933      181.307      203.104      233.167      205.495      185.020      166.792      185.020      205.495      233.167      203.104      181.307      162.933      181.307      203.104      233.167      205.495      185.020      166.792      185.020      205.495      233.167      203.104      181.307      162.933
$ mean alpha: 0.874666646322
$ mean beta: 0.919274487637
$alpha by ik, ith
0.87  0.87  0.88  0.88  0.87  0.86  0.84  0.86  0.89  0.91  0.89  0.88  0.87  0.87  0.88  0.88  0.87  0.86  0.84  0.86  0.89  0.91  0.89  0.88  0.87
0.87  0.87  0.88  0.88  0.87  0.86  0.84  0.86  0.89  0.91  0.89  0.88  0.87  0.87  0.88  0.88  0.87  0.86  0.84  0.86  0.89  0.91  0.89  0.88  0.87
0.87  0.87  0.88  0.88  0.87  0.86  0.84  0.86  0.89  0.91  0.89  0.88  0.87  0.87  0.88  0.88  0.87  0.86  0.84  0.86  0.89  0.91  0.89  0.88  0.87
0.87  0.87  0.88  0.88  0.87  0.86  0.84  0.86  0.89  0.91  0.89  0.88  0.87  0.87  0.88  0.88  0.87  0.86  0.84  0.86  0.89  0.91  0.89  0.88  0.87
0.87  0.87  0.88  0.88  0.87  0.86  0.84  0.86  0.89  0.91  0.89  0.88  0.87  0.87  0.88  0.88  0.87  0.86  0.84  0.86  0.89  0.91  0.89  0.88  0.87
0.87  0.87  0.88  0.88  0.87  0.86  0.84  0.86  0.89  0.91  0.89  0.88  0.87  0.87  0.88  0.88  0.87  0.86  0.84  0.86  0.89  0.91  0.89  0.88  0.87
0.87  0.87  0.88  0.88  0.87  0.86  0.84  0.86  0.89  0.91  0.89  0.88  0.87  0.87  0.88  0.88  0.87  0.86  0.84  0.86  0.89  0.91  0.89  0.88  0.87
0.87  0.87  0.88  0.88  0.87  0.86  0.84  0.86  0.89  0.91  0.89  0.88  0.87  0.87  0.88  0.88  0.87  0.86  0.84  0.86  0.89  0.91  0.89  0.88  0.87
0.87  0.87  0.88  0.88  0.87  0.86  0.84  0.86  0.89  0.91  0.89  0.88  0.87  0.87  0.88  0.88  0.87  0.86  0.84  0.86  0.89  0.91  0.89  0.88  0.87
0.87  0.87  0.88  0.88  0.87  0.86  0.84  0.86  0.89  0.91  0.89  0.88  0.87  0.87  0.88  0.88  0.87  0.86  0.84  0.86  0.89  0.91  0.89  0.88  0.87
0.87  0.87  0.88  0.88  0.87  0.86  0.84  0.86  0.89  0.91  0.89  0.88  0.87  0.87  0.88  0.88  0.87  0.86  0.84  0.86  0.89  0.91  0.89  0.88  0.87
0.87  0.87  0.88  0.88  0.87  0.86  0.84  0.86  0.89  0.91  0.89  0.88  0.87  0.87  0.88  0.88  0.87  0.86  0.84  0.86  0.89  0.91  0.89  0.88  0.87
0.87  0.87  0.88  0.88  0.87  0.86  0.84  0.86  0.89  0.91  0.89  0.88  0.87  0.87  0.88  0.88  0.87  0.86  0.84  0.86  0.89  0.91  0.89  0.88  0.87
0.87  0.87  0.88  0.88  0.87  0.86  0.84  0.86  0.89  0.91  0.89  0.88  0.87  0.87  0.88  0.88  0.87  0.86  0.84  0.86  0.89  0.91  0.89  0.88  0.87
0.87  0.87  0.88  0.88  0.87  0.86  0.84  0.86  0.89  0.91  0.89  0.88  0.87  0.87  0.88  0.88  0.87  0.86  0.84  0.86  0.89  0.91  0.89  0.88  0.87
0.87  0.87  0.88  0.88  0.87  0.86  0.84  0.86  0.89  0.91  0.89  0.88  0.87  0.87  0.88  0.88  0.87  0.86  0.84  0.86  0.89  0.91  0.89  0.88  0.87
0.87  0.87  0.88  0.88  0.87  0.86  0.84  0.86  0.89  0.91  0.89  0.88  0.87  0.87  0.88  0.88  0.87  0.86  0.84  0.86  0.89  0.91  0.89  0.88  0.87
0.87  0.87  0.88  0.88  0.87  0.86  0.84  0.86  0.89  0.91  0.89  0.88  0.87  0.87  0.88  0.88  0.87  0.86  0.84  0.86  0.89  0.91  0.89  0.88  0.87
0.87  0.87  0.88  0.88  0.87  0.86  0.84  0.86  0.89  0.91  0.89  0.88  0.87  0.87  0.88  0.88  0.87  0.86  0.84  0.86  0.89  0.91  0.89  0.88  0.87
0.87  0.87  0.88  0.88  0.87  0.86  0.84  0.86  0.89  0.91  0.89  0.88  0.87  0.87  0.88  0.88  0.87  0.86  0.84  0.86  0.89  0.91  0.89  0.88  0.87
0.87  0.87  0.88  0.88  0.87  0.86  0.84  0.86  0.89  0.91  0.89  0.88  0.87  0.87  0.88  0.88  0.87  0.86  0.84  0.86  0.89  0.91  0.89  0.88  0.87
0.87  0.87  0.88  0.88  0.87  0.86  0.84  0.86  0.89  0.91  0.89  0.88  0.87  0.87  0.88  0.88  0.87  0.86  0.84  0.86  0.89  0.91  0.89  0.88  0.87
0.87  0.87  0.88  0.88  0.87  0.86  0.84  0.86  0.89  0.91  0.89  0.88  0.87  0.87  0.88  0.88  0.87  0.86  0.84  0.86  0.89  0.91  0.89  0.88  0.87
0.87  0.87  0.88  0.88  0.87  0.86  0.84  0.86  0.89  0.91  0.89  0.88  0.87  0.87  0.88  0.88  0.87  0.86  0.84  0.86  0.89  0.91  0.89  0.88  0.87
0.87  0.87  0.88  0.88  0.87  0.86  0.84  0.86  0.89  0.91  0.89  0.88  0.87  0.87  0.88  0.88  0.87  0.86  0.84  0.86  0.89  0.91  0.89  0.88  0.87
$beta by ik, ith
0.96  0.96  0.97  0.97  0.97  0.97  0.98  0.96  0.95  0.94  0.92  0.90  0.88  0.87  0.86  0.85  0.85  0.85  0.84  0.87  0.90  0.92  0.94  0.95  0.96
0.96  0.96  0.97  0.97  0.97  0.97  0.98  0.96  0.95  0.94  0.92  0.90  0.88  0.87  0.86  0.85  0.85  0.85  0.84  0.87  0.90  0.92  0.94  0.95  0.96
0.96  0.96  0.97  0.97  0.97  0.97  0.98  0.96  0.95  0.94  0.92  0.90  0.88  0.87  0.86  0.85  0.85  0.85  0.84  0.87  0.90  0.92  0.94  0.95  0.96
0.96  0.96  0.97  0.97  0.97  0.97  0.98  0.96  0.95  0.94  0.92  0.90  0.88  0.87  0.86  0.85  0.85  0.85  0.84  0.87  0.90  0.92  0.94  0.95  0.96
0.96  0.96  0.97  0.97  0.97  0.97  0.98  0.96  0.95  0.94  0.92  0.90  0.88  0.87  0.86  0.85  0.85  0.85  0.84  0.87  0.90  0.92  0.94  0.95  0.96
0.96  0.96  0.97  0.97  0.97  0.97  0.98  0.96  0.95  0.94  0.92  0.90  0.88  0.87  0.86  0.85  0.85  0.85  0.84  0.87  0.90  0.92  0.94  0.95  0.96
0.96  0.96  0.97  0.97  0.97  0.97  0.98  0.96  0.95  0.94  0.92  0.90  0.88  0.87  0.86  0.85  0.85  0.85  0.84  0.87  0.90  0.92  0.94  0.95  0.96
0.96  0.96  0.97  0.97  0.97  0.97  0.98  0.96  0.95  0.94  0.92  0.90  0.88  0.87  0.86  0.85  0.85  0.85  0.84  0.87  0.90  0.92  0.94  0.95  0.96
0.96  0.96  0.97  0.97  0.97  0.97  0.98  0.96  0.95  0.94  0.92  0.90  0.88  0.87  0.86  0.85  0.85  0.85  0.84  0.87  0.90  0.92  0.94  0.95  0.96
0.96  0.96  0.97  0.97  0.97  0.97  0.98  0.96  0.95  0.94  0.92  0.90  0.88  0.87  0.86  0.85  0.85  0.85  0.84  0.87  0.90  0.92  0.94  0.95  0.96
0.96  0.96  0.97  0.97  0.97  0.97  0.98  0.96  0.95  0.94  0.92  0.90  0.88  0.87  0.86  0.85  0.85  0.85  0.84  0.87  0.90  0.92  0.94  0.95  0.96
0.96  0.96  0.97  0.97  0.97  0.97  0.98  0.96  0.95  0.94  0.92  0.90  0.88  0.87  0.86  0.85  0.85  0.85  0.84  0.87  0.90  0.92  0.94  0.95  0.96
0.96  0.96  0.97  0.97  0.97  0.97  0.98  0.96  0.95  0.94  0.92  0.90  0.88  0.87  0.86  0.85  0.85  0.85  0.84  0.87  0.90  0.92  0.94  0.95  0.96
0.96  0.96  0.97  0.97  0.97  0.97  0.98  0.96  0.95  0.94  0.92  0.90  0.88  0.87  0.86  0.85  0.85  0.85  0.84  0.87  0.90  0.92  0.94  0.95  0.96
0.96  0.96  0.97  0.97  0.97  0.97  0.98  0.96  0.95  0.94  0.92  0.90  0.88  0.87  0.86  0.85  0.85  0.85  0.84  0.87  0.90  0.92  0.94  0.95  0.96
0.96  0.96  0.97  0.97  0.97  0.97  0.98  0.96  0.95  0.94  0.92  0.90  0.88  0.87  0.86  0.85  0.85  0.85  0.84  0.87  0.90  0.92  0.94  0.95  0.96
0.96  0.96  0.97  0.97  0.97  0.97  0.98  0.96  0.95  0.94  0.92  0.90  0.88  0.87  0.86  0.85  0.85  0.85  0.84  0.87  0.90  0.92  0.94  0.95  0.96
0.96  0.96  0.97  0.97  0.97  0.97  0.98  0.96  0.95  0.94  0.92  0.90  0.88  0.87  0.86  0.85  0.85  0.85  0.84  0.87  0.90  0.92  0.94  0.95  0.96
0.96  0.96  0.97  0.97  0.97  0.97  0.98  0.96  0.95  0.94  0.92  0.90  0.88  0.87  0.86  0.85  0.85  0.85  0.84  0.87  0.90  0.92  0.94  0.95  0.96
0.96  0.96  0.97  0.97  0.97  0.97  0.98  0.96  0.95  0.94  0.92  0.90  0.88  0.87  0.86  0.85  0.85  0.85  0.84  0.87  0.90  0.92  0.94  0.95  0.96
0.96  0.96  0.97  0.97  0.97  0.97  0.98  0.96  0.95  0.94  0.92  0.90  0.88  0.87  0.86  0.85  0.85  0.85  0.84  0.87  0.90  0.92  0.94  0.95  0.96
0.96  0.96  0.97  0.97  0.97  0.97  0.98  0.96  0.95  0.94  0.92  0.90  0.88  0.87  0.86  0.85  0.85  0.85  0.84  0.87  0.90  0.92  0.94  0.95  0.96
0.96  0.96  0.97  0.97  0.97  0.97  0.98  0.96  0.95  0.94  0.92  0.90  0.88  0.87  0.86  0.85  0.85  0.85  0.84  0.87  0.90  0.92  0.94  0.95  0.96
0.96  0.96  0.97  0.97  0.97  0.97  0.98  0.96  0.95  0.94  0.92  0.90  0.88  0.87  0.86  0.85  0.85  0.85  0.84  0.87  0.90  0.92  0.94  0.95  0.96
0.96  0.96  0.97  0.97  0.97  0.97  0.98  0.96  0.95  0.94  0.92  0.90  0.88  0.87  0.86  0.85  0.85  0.85  0.84  0.87  0.90  0.92  0.94  0.95  0.96
$ ilon ilat of the cell. lon: -60.0, 14.0
81   57
$ sizes of the cell in km
   161.943      180.283      202.190      232.476      205.194      184.948      166.792      184.948      205.194      232.476      202.190      180.283      161.943      180.283      202.190      232.476      205.194      184.948      166.792      184.948      205.194      232.476      202.190      180.283      161.943
$ mean alpha: 0.938666625977
$ mean beta: 0.96224753322
$alpha by ik, ith
0.93  0.94  0.94  0.94  0.94  0.94  0.93  0.94  0.94  0.95  0.94  0.94  0.93  0.94  0.94  0.94  0.94  0.94  0.93  0.94  0.94  0.95  0.94  0.94  0.93
0.93  0.94  0.94  0.94  0.94  0.94  0.93  0.94  0.94  0.95  0.94  0.94  0.93  0.94  0.94  0.94  0.94  0.94  0.93  0.94  0.94  0.95  0.94  0.94  0.93
0.93  0.94  0.94  0.94  0.94  0.94  0.93  0.94  0.94  0.95  0.94  0.94  0.93  0.94  0.94  0.94  0.94  0.94  0.93  0.94  0.94  0.95  0.94  0.94  0.93
0.93  0.94  0.94  0.94  0.94  0.94  0.93  0.94  0.94  0.95  0.94  0.94  0.93  0.94  0.94  0.94  0.94  0.94  0.93  0.94  0.94  0.95  0.94  0.94  0.93
0.93  0.94  0.94  0.94  0.94  0.94  0.93  0.94  0.94  0.95  0.94  0.94  0.93  0.94  0.94  0.94  0.94  0.94  0.93  0.94  0.94  0.95  0.94  0.94  0.93
0.93  0.94  0.94  0.94  0.94  0.94  0.93  0.94  0.94  0.95  0.94  0.94  0.93  0.94  0.94  0.94  0.94  0.94  0.93  0.94  0.94  0.95  0.94  0.94  0.93
0.93  0.94  0.94  0.94  0.94  0.94  0.93  0.94  0.94  0.95  0.94  0.94  0.93  0.94  0.94  0.94  0.94  0.94  0.93  0.94  0.94  0.95  0.94  0.94  0.93
0.93  0.94  0.94  0.94  0.94  0.94  0.93  0.94  0.94  0.95  0.94  0.94  0.93  0.94  0.94  0.94  0.94  0.94  0.93  0.94  0.94  0.95  0.94  0.94  0.93
0.93  0.94  0.94  0.94  0.94  0.94  0.93  0.94  0.94  0.95  0.94  0.94  0.93  0.94  0.94  0.94  0.94  0.94  0.93  0.94  0.94  0.95  0.94  0.94  0.93
0.93  0.94  0.94  0.94  0.94  0.94  0.93  0.94  0.94  0.95  0.94  0.94  0.93  0.94  0.94  0.94  0.94  0.94  0.93  0.94  0.94  0.95  0.94  0.94  0.93
0.93  0.94  0.94  0.94  0.94  0.94  0.93  0.94  0.94  0.95  0.94  0.94  0.93  0.94  0.94  0.94  0.94  0.94  0.93  0.94  0.94  0.95  0.94  0.94  0.93
0.93  0.94  0.94  0.94  0.94  0.94  0.93  0.94  0.94  0.95  0.94  0.94  0.93  0.94  0.94  0.94  0.94  0.94  0.93  0.94  0.94  0.95  0.94  0.94  0.93
0.93  0.94  0.94  0.94  0.94  0.94  0.93  0.94  0.94  0.95  0.94  0.94  0.93  0.94  0.94  0.94  0.94  0.94  0.93  0.94  0.94  0.95  0.94  0.94  0.93
0.93  0.94  0.94  0.94  0.94  0.94  0.93  0.94  0.94  0.95  0.94  0.94  0.93  0.94  0.94  0.94  0.94  0.94  0.93  0.94  0.94  0.95  0.94  0.94  0.93
0.93  0.94  0.94  0.94  0.94  0.94  0.93  0.94  0.94  0.95  0.94  0.94  0.93  0.94  0.94  0.94  0.94  0.94  0.93  0.94  0.94  0.95  0.94  0.94  0.93
0.93  0.94  0.94  0.94  0.94  0.94  0.93  0.94  0.94  0.95  0.94  0.94  0.93  0.94  0.94  0.94  0.94  0.94  0.93  0.94  0.94  0.95  0.94  0.94  0.93
0.93  0.94  0.94  0.94  0.94  0.94  0.93  0.94  0.94  0.95  0.94  0.94  0.93  0.94  0.94  0.94  0.94  0.94  0.93  0.94  0.94  0.95  0.94  0.94  0.93
0.93  0.94  0.94  0.94  0.94  0.94  0.93  0.94  0.94  0.95  0.94  0.94  0.93  0.94  0.94  0.94  0.94  0.94  0.93  0.94  0.94  0.95  0.94  0.94  0.93
0.93  0.94  0.94  0.94  0.94  0.94  0.93  0.94  0.94  0.95  0.94  0.94  0.93  0.94  0.94  0.94  0.94  0.94  0.93  0.94  0.94  0.95  0.94  0.94  0.93
0.93  0.94  0.94  0.94  0.94  0.94  0.93  0.94  0.94  0.95  0.94  0.94  0.93  0.94  0.94  0.94  0.94  0.94  0.93  0.94  0.94  0.95  0.94  0.94  0.93
0.93  0.94  0.94  0.94  0.94  0.94  0.93  0.94  0.94  0.95  0.94  0.94  0.93  0.94  0.94  0.94  0.94  0.94  0.93  0.94  0.94  0.95  0.94  0.94  0.93
0.93  0.94  0.94  0.94  0.94  0.94  0.93  0.94  0.94  0.95  0.94  0.94  0.93  0.94  0.94  0.94  0.94  0.94  0.93  0.94  0.94  0.95  0.94  0.94  0.93
0.93  0.94  0.94  0.94  0.94  0.94  0.93  0.94  0.94  0.95  0.94  0.94  0.93  0.94  0.94  0.94  0.94  0.94  0.93  0.94  0.94  0.95  0.94  0.94  0.93
0.93  0.94  0.94  0.94  0.94  0.94  0.93  0.94  0.94  0.95  0.94  0.94  0.93  0.94  0.94  0.94  0.94  0.94  0.93  0.94  0.94  0.95  0.94  0.94  0.93
0.93  0.94  0.94  0.94  0.94  0.94  0.93  0.94  0.94  0.95  0.94  0.94  0.93  0.94  0.94  0.94  0.94  0.94  0.93  0.94  0.94  0.95  0.94  0.94  0.93
$beta by ik, ith
0.98  0.97  0.96  0.95  0.94  0.94  0.93  0.94  0.94  0.94  0.94  0.94  0.94  0.95  0.96  0.97  0.98  0.98  0.99  0.99  0.99  0.99  0.98  0.98  0.98
0.98  0.97  0.96  0.95  0.94  0.94  0.93  0.94  0.94  0.94  0.94  0.94  0.94  0.95  0.96  0.97  0.98  0.98  0.99  0.99  0.99  0.99  0.98  0.98  0.98
0.98  0.97  0.96  0.95  0.94  0.94  0.93  0.94  0.94  0.94  0.94  0.94  0.94  0.95  0.96  0.97  0.98  0.98  0.99  0.99  0.99  0.99  0.98  0.98  0.98
0.98  0.97  0.96  0.95  0.94  0.94  0.93  0.94  0.94  0.94  0.94  0.94  0.94  0.95  0.96  0.97  0.98  0.98  0.99  0.99  0.99  0.99  0.98  0.98  0.98
0.98  0.97  0.96  0.95  0.94  0.94  0.93  0.94  0.94  0.94  0.94  0.94  0.94  0.95  0.96  0.97  0.98  0.98  0.99  0.99  0.99  0.99  0.98  0.98  0.98
0.98  0.97  0.96  0.95  0.94  0.94  0.93  0.94  0.94  0.94  0.94  0.94  0.94  0.95  0.96  0.97  0.98  0.98  0.99  0.99  0.99  0.99  0.98  0.98  0.98
0.98  0.97  0.96  0.95  0.94  0.94  0.93  0.94  0.94  0.94  0.94  0.94  0.94  0.95  0.96  0.97  0.98  0.98  0.99  0.99  0.99  0.99  0.98  0.98  0.98
0.98  0.97  0.96  0.95  0.94  0.94  0.93  0.94  0.94  0.94  0.94  0.94  0.94  0.95  0.96  0.97  0.98  0.98  0.99  0.99  0.99  0.99  0.98  0.98  0.98
0.98  0.97  0.96  0.95  0.94  0.94  0.93  0.94  0.94  0.94  0.94  0.94  0.94  0.95  0.96  0.97  0.98  0.98  0.99  0.99  0.99  0.99  0.98  0.98  0.98
0.98  0.97  0.96  0.95  0.94  0.94  0.93  0.94  0.94  0.94  0.94  0.94  0.94  0.95  0.96  0.97  0.98  0.98  0.99  0.99  0.99  0.99  0.98  0.98  0.98
0.98  0.97  0.96  0.95  0.94  0.94  0.93  0.94  0.94  0.94  0.94  0.94  0.94  0.95  0.96  0.97  0.98  0.98  0.99  0.99  0.99  0.99  0.98  0.98  0.98
0.98  0.97  0.96  0.95  0.94  0.94  0.93  0.94  0.94  0.94  0.94  0.94  0.94  0.95  0.96  0.97  0.98  0.98  0.99  0.99  0.99  0.99  0.98  0.98  0.98
0.98  0.97  0.96  0.95  0.94  0.94  0.93  0.94  0.94  0.94  0.94  0.94  0.94  0.95  0.96  0.97  0.98  0.98  0.99  0.99  0.99  0.99  0.98  0.98  0.98
0.98  0.97  0.96  0.95  0.94  0.94  0.93  0.94  0.94  0.94  0.94  0.94  0.94  0.95  0.96  0.97  0.98  0.98  0.99  0.99  0.99  0.99  0.98  0.98  0.98
0.98  0.97  0.96  0.95  0.94  0.94  0.93  0.94  0.94  0.94  0.94  0.94  0.94  0.95  0.96  0.97  0.98  0.98  0.99  0.99  0.99  0.99  0.98  0.98  0.98
0.98  0.97  0.96  0.95  0.94  0.94  0.93  0.94  0.94  0.94  0.94  0.94  0.94  0.95  0.96  0.97  0.98  0.98  0.99  0.99  0.99  0.99  0.98  0.98  0.98
0.98  0.97  0.96  0.95  0.94  0.94  0.93  0.94  0.94  0.94  0.94  0.94  0.94  0.95  0.96  0.97  0.98  0.98  0.99  0.99  0.99  0.99  0.98  0.98  0.98
0.98  0.97  0.96  0.95  0.94  0.94  0.93  0.94  0.94  0.94  0.94  0.94  0.94  0.95  0.96  0.97  0.98  0.98  0.99  0.99  0.99  0.99  0.98  0.98  0.98
0.98  0.97  0.96  0.95  0.94  0.94  0.93  0.94  0.94  0.94  0.94  0.94  0.94  0.95  0.96  0.97  0.98  0.98  0.99  0.99  0.99  0.99  0.98  0.98  0.98
0.98  0.97  0.96  0.95  0.94  0.94  0.93  0.94  0.94  0.94  0.94  0.94  0.94  0.95  0.96  0.97  0.98  0.98  0.99  0.99  0.99  0.99  0.98  0.98  0.98
0.98  0.97  0.96  0.95  0.94  0.94  0.93  0.94  0.94  0.94  0.94  0.94  0.94  0.95  0.96  0.97  0.98  0.98  0.99  0.99  0.99  0.99  0.98  0.98  0.98
0.98  0.97  0.96  0.95  0.94  0.94  0.93  0.94  0.94  0.94  0.94  0.94  0.94  0.95  0.96  0.97  0.98  0.98  0.99  0.99  0.99  0.99  0.98  0.98  0.98
0.98  0.97  0.96  0.95  0.94  0.94  0.93  0.94  0.94  0.94  0.94  0.94  0.94  0.95  0.96  0.97  0.98  0.98  0.99  0.99  0.99  0.99  0.98  0.98  0.98
0.98  0.97  0.96  0.95  0.94  0.94  0.93  0.94  0.94  0.94  0.94  0.94  0.94  0.95  0.96  0.97  0.98  0.98  0.99  0.99  0.99  0.99  0.98  0.98  0.98
0.98  0.97  0.96  0.95  0.94  0.94  0.93  0.94  0.94  0.94  0.94  0.94  0.94  0.95  0.96  0.97  0.98  0.98  0.99  0.99  0.99  0.99  0.98  0.98  0.98
