$WAVEWATCH III SHADOW OBSTRUCTIONS
204
$ ilon ilat of the cell. lon: -96.0, 26.0
57   65
$ sizes of the cell in km
   150.103      168.069      191.379      224.389      201.709      184.121      166.792      184.121      201.709      224.389      191.379      168.069      150.103      168.069      191.379      224.389      201.709      184.121      166.792      184.121      201.709      224.389      191.379      168.069      150.103
$ mean alpha: 0.977599982388
$ mean beta: 0.977599982388
$alpha by ik, ith
1.00  1.00  1.00  1.00  1.00  1.00  1.00  1.00  1.00  1.00  1.00  1.00  1.00  1.00  1.00  1.00  0.96  0.93  0.89  0.90  0.91  0.92  0.95  0.97  1.00
1.00  1.00  1.00  1.00  1.00  1.00  1.00  1.00  1.00  1.00  1.00  1.00  1.00  1.00  1.00  1.00  0.96  0.93  0.89  0.90  0.91  0.92  0.95  0.97  1.00
1.00  1.00  1.00  1.00  1.00  1.00  1.00  1.00  1.00  1.00  1.00  1.00  1.00  1.00  1.00  1.00  0.96  0.93  0.89  0.90  0.91  0.92  0.95  0.97  1.00
1.00  1.00  1.00  1.00  1.00  1.00  1.00  1.00  1.00  1.00  1.00  1.00  1.00  1.00  1.00  1.00  0.96  0.93  0.89  0.90  0.91  0.92  0.95  0.97  1.00
1.00  1.00  1.00  1.00  1.00  1.00  1.00  1.00  1.00  1.00  1.00  1.00  1.00  1.00  1.00  1.00  0.96  0.93  0.89  0.90  0.91  0.92  0.95  0.97  1.00
1.00  1.00  1.00  1.00  1.00  1.00  1.00  1.00  1.00  1.00  1.00  1.00  1.00  1.00  1.00  1.00  0.96  0.93  0.89  0.90  0.91  0.92  0.95  0.97  1.00
1.00  1.00  1.00  1.00  1.00  1.00  1.00  1.00  1.00  1.00  1.00  1.00  1.00  1.00  1.00  1.00  0.96  0.93  0.89  0.90  0.91  0.92  0.95  0.97  1.00
1.00  1.00  1.00  1.00  1.00  1.00  1.00  1.00  1.00  1.00  1.00  1.00  1.00  1.00  1.00  1.00  0.96  0.93  0.89  0.90  0.91  0.92  0.95  0.97  1.00
1.00  1.00  1.00  1.00  1.00  1.00  1.00  1.00  1.00  1.00  1.00  1.00  1.00  1.00  1.00  1.00  0.96  0.93  0.89  0.90  0.91  0.92  0.95  0.97  1.00
1.00  1.00  1.00  1.00  1.00  1.00  1.00  1.00  1.00  1.00  1.00  1.00  1.00  1.00  1.00  1.00  0.96  0.93  0.89  0.90  0.91  0.92  0.95  0.97  1.00
1.00  1.00  1.00  1.00  1.00  1.00  1.00  1.00  1.00  1.00  1.00  1.00  1.00  1.00  1.00  1.00  0.96  0.93  0.89  0.90  0.91  0.92  0.95  0.97  1.00
1.00  1.00  1.00  1.00  1.00  1.00  1.00  1.00  1.00  1.00  1.00  1.00  1.00  1.00  1.00  1.00  0.96  0.93  0.89  0.90  0.91  0.92  0.95  0.97  1.00
1.00  1.00  1.00  1.00  1.00  1.00  1.00  1.00  1.00  1.00  1.00  1.00  1.00  1.00  1.00  1.00  0.96  0.93  0.89  0.90  0.91  0.92  0.95  0.97  1.00
1.00  1.00  1.00  1.00  1.00  1.00  1.00  1.00  1.00  1.00  1.00  1.00  1.00  1.00  1.00  1.00  0.96  0.93  0.89  0.90  0.91  0.92  0.95  0.97  1.00
1.00  1.00  1.00  1.00  1.00  1.00  1.00  1.00  1.00  1.00  1.00  1.00  1.00  1.00  1.00  1.00  0.96  0.93  0.89  0.90  0.91  0.92  0.95  0.97  1.00
1.00  1.00  1.00  1.00  1.00  1.00  1.00  1.00  1.00  1.00  1.00  1.00  1.00  1.00  1.00  1.00  0.96  0.93  0.89  0.90  0.91  0.92  0.95  0.97  1.00
1.00  1.00  1.00  1.00  1.00  1.00  1.00  1.00  1.00  1.00  1.00  1.00  1.00  1.00  1.00  1.00  0.96  0.93  0.89  0.90  0.91  0.92  0.95  0.97  1.00
1.00  1.00  1.00  1.00  1.00  1.00  1.00  1.00  1.00  1.00  1.00  1.00  1.00  1.00  1.00  1.00  0.96  0.93  0.89  0.90  0.91  0.92  0.95  0.97  1.00
1.00  1.00  1.00  1.00  1.00  1.00  1.00  1.00  1.00  1.00  1.00  1.00  1.00  1.00  1.00  1.00  0.96  0.93  0.89  0.90  0.91  0.92  0.95  0.97  1.00
1.00  1.00  1.00  1.00  1.00  1.00  1.00  1.00  1.00  1.00  1.00  1.00  1.00  1.00  1.00  1.00  0.96  0.93  0.89  0.90  0.91  0.92  0.95  0.97  1.00
1.00  1.00  1.00  1.00  1.00  1.00  1.00  1.00  1.00  1.00  1.00  1.00  1.00  1.00  1.00  1.00  0.96  0.93  0.89  0.90  0.91  0.92  0.95  0.97  1.00
1.00  1.00  1.00  1.00  1.00  1.00  1.00  1.00  1.00  1.00  1.00  1.00  1.00  1.00  1.00  1.00  0.96  0.93  0.89  0.90  0.91  0.92  0.95  0.97  1.00
1.00  1.00  1.00  1.00  1.00  1.00  1.00  1.00  1.00  1.00  1.00  1.00  1.00  1.00  1.00  1.00  0.96  0.93  0.89  0.90  0.91  0.92  0.95  0.97  1.00
1.00  1.00  1.00  1.00  1.00  1.00  1.00  1.00  1.00  1.00  1.00  1.00  1.00  1.00  1.00  1.00  0.96  0.93  0.89  0.90  0.91  0.92  0.95  0.97  1.00
1.00  1.00  1.00  1.00  1.00  1.00  1.00  1.00  1.00  1.00  1.00  1.00  1.00  1.00  1.00  1.00  0.96  0.93  0.89  0.90  0.91  0.92  0.95  0.97  1.00
$beta by ik, ith
1.00  1.00  1.00  1.00  1.00  1.00  1.00  1.00  1.00  1.00  1.00  1.00  1.00  1.00  1.00  1.00  0.96  0.93  0.89  0.90  0.91  0.92  0.95  0.97  1.00
1.00  1.00  1.00  1.00  1.00  1.00  1.00  1.00  1.00  1.00  1.00  1.00  1.00  1.00  1.00  1.00  0.96  0.93  0.89  0.90  0.91  0.92  0.95  0.97  1.00
1.00  1.00  1.00  1.00  1.00  1.00  1.00  1.00  1.00  1.00  1.00  1.00  1.00  1.00  1.00  1.00  0.96  0.93  0.89  0.90  0.91  0.92  0.95  0.97  1.00
1.00  1.00  1.00  1.00  1.00  1.00  1.00  1.00  1.00  1.00  1.00  1.00  1.00  1.00  1.00  1.00  0.96  0.93  0.89  0.90  0.91  0.92  0.95  0.97  1.00
1.00  1.00  1.00  1.00  1.00  1.00  1.00  1.00  1.00  1.00  1.00  1.00  1.00  1.00  1.00  1.00  0.96  0.93  0.89  0.90  0.91  0.92  0.95  0.97  1.00
1.00  1.00  1.00  1.00  1.00  1.00  1.00  1.00  1.00  1.00  1.00  1.00  1.00  1.00  1.00  1.00  0.96  0.93  0.89  0.90  0.91  0.92  0.95  0.97  1.00
1.00  1.00  1.00  1.00  1.00  1.00  1.00  1.00  1.00  1.00  1.00  1.00  1.00  1.00  1.00  1.00  0.96  0.93  0.89  0.90  0.91  0.92  0.95  0.97  1.00
1.00  1.00  1.00  1.00  1.00  1.00  1.00  1.00  1.00  1.00  1.00  1.00  1.00  1.00  1.00  1.00  0.96  0.93  0.89  0.90  0.91  0.92  0.95  0.97  1.00
1.00  1.00  1.00  1.00  1.00  1.00  1.00  1.00  1.00  1.00  1.00  1.00  1.00  1.00  1.00  1.00  0.96  0.93  0.89  0.90  0.91  0.92  0.95  0.97  1.00
1.00  1.00  1.00  1.00  1.00  1.00  1.00  1.00  1.00  1.00  1.00  1.00  1.00  1.00  1.00  1.00  0.96  0.93  0.89  0.90  0.91  0.92  0.95  0.97  1.00
1.00  1.00  1.00  1.00  1.00  1.00  1.00  1.00  1.00  1.00  1.00  1.00  1.00  1.00  1.00  1.00  0.96  0.93  0.89  0.90  0.91  0.92  0.95  0.97  1.00
1.00  1.00  1.00  1.00  1.00  1.00  1.00  1.00  1.00  1.00  1.00  1.00  1.00  1.00  1.00  1.00  0.96  0.93  0.89  0.90  0.91  0.92  0.95  0.97  1.00
1.00  1.00  1.00  1.00  1.00  1.00  1.00  1.00  1.00  1.00  1.00  1.00  1.00  1.00  1.00  1.00  0.96  0.93  0.89  0.90  0.91  0.92  0.95  0.97  1.00
1.00  1.00  1.00  1.00  1.00  1.00  1.00  1.00  1.00  1.00  1.00  1.00  1.00  1.00  1.00  1.00  0.96  0.93  0.89  0.90  0.91  0.92  0.95  0.97  1.00
1.00  1.00  1.00  1.00  1.00  1.00  1.00  1.00  1.00  1.00  1.00  1.00  1.00  1.00  1.00  1.00  0.96  0.93  0.89  0.90  0.91  0.92  0.95  0.97  1.00
1.00  1.00  1.00  1.00  1.00  1.00  1.00  1.00  1.00  1.00  1.00  1.00  1.00  1.00  1.00  1.00  0.96  0.93  0.89  0.90  0.91  0.92  0.95  0.97  1.00
1.00  1.00  1.00  1.00  1.00  1.00  1.00  1.00  1.00  1.00  1.00  1.00  1.00  1.00  1.00  1.00  0.96  0.93  0.89  0.90  0.91  0.92  0.95  0.97  1.00
1.00  1.00  1.00  1.00  1.00  1.00  1.00  1.00  1.00  1.00  1.00  1.00  1.00  1.00  1.00  1.00  0.96  0.93  0.89  0.90  0.91  0.92  0.95  0.97  1.00
1.00  1.00  1.00  1.00  1.00  1.00  1.00  1.00  1.00  1.00  1.00  1.00  1.00  1.00  1.00  1.00  0.96  0.93  0.89  0.90  0.91  0.92  0.95  0.97  1.00
1.00  1.00  1.00  1.00  1.00  1.00  1.00  1.00  1.00  1.00  1.00  1.00  1.00  1.00  1.00  1.00  0.96  0.93  0.89  0.90  0.91  0.92  0.95  0.97  1.00
1.00  1.00  1.00  1.00  1.00  1.00  1.00  1.00  1.00  1.00  1.00  1.00  1.00  1.00  1.00  1.00  0.96  0.93  0.89  0.90  0.91  0.92  0.95  0.97  1.00
1.00  1.00  1.00  1.00  1.00  1.00  1.00  1.00  1.00  1.00  1.00  1.00  1.00  1.00  1.00  1.00  0.96  0.93  0.89  0.90  0.91  0.92  0.95  0.97  1.00
1.00  1.00  1.00  1.00  1.00  1.00  1.00  1.00  1.00  1.00  1.00  1.00  1.00  1.00  1.00  1.00  0.96  0.93  0.89  0.90  0.91  0.92  0.95  0.97  1.00
1.00  1.00  1.00  1.00  1.00  1.00  1.00  1.00  1.00  1.00  1.00  1.00  1.00  1.00  1.00  1.00  0.96  0.93  0.89  0.90  0.91  0.92  0.95  0.97  1.00
1.00  1.00  1.00  1.00  1.00  1.00  1.00  1.00  1.00  1.00  1.00  1.00  1.00  1.00  1.00  1.00  0.96  0.93  0.89  0.90  0.91  0.92  0.95  0.97  1.00
$ ilon ilat of the cell. lon: -94.5, 12.5
58   56
$ sizes of the cell in km
   162.933      181.307      203.104      233.167      205.495      185.020      166.792      185.020      205.495      233.167      203.104      181.307      162.933      181.307      203.104      233.167      205.495      185.020      166.792      185.020      205.495      233.167      203.104      181.307      162.933
$ mean alpha: 0.982400101446
$ mean beta: 0.982400101446
$alpha by ik, ith
1.00  1.00  1.00  1.00  1.00  1.00  1.00  1.00  1.00  1.00  1.00  1.00  1.00  0.95  0.90  0.85  0.90  0.95  1.00  1.00  1.00  1.00  1.00  1.00  1.00
1.00  1.00  1.00  1.00  1.00  1.00  1.00  1.00  1.00  1.00  1.00  1.00  1.00  0.95  0.90  0.85  0.90  0.95  1.00  1.00  1.00  1.00  1.00  1.00  1.00
1.00  1.00  1.00  1.00  1.00  1.00  1.00  1.00  1.00  1.00  1.00  1.00  1.00  0.95  0.90  0.85  0.90  0.95  1.00  1.00  1.00  1.00  1.00  1.00  1.00
1.00  1.00  1.00  1.00  1.00  1.00  1.00  1.00  1.00  1.00  1.00  1.00  1.00  0.95  0.90  0.85  0.90  0.95  1.00  1.00  1.00  1.00  1.00  1.00  1.00
1.00  1.00  1.00  1.00  1.00  1.00  1.00  1.00  1.00  1.00  1.00  1.00  1.00  0.95  0.90  0.85  0.90  0.95  1.00  1.00  1.00  1.00  1.00  1.00  1.00
1.00  1.00  1.00  1.00  1.00  1.00  1.00  1.00  1.00  1.00  1.00  1.00  1.00  0.95  0.90  0.85  0.90  0.95  1.00  1.00  1.00  1.00  1.00  1.00  1.00
1.00  1.00  1.00  1.00  1.00  1.00  1.00  1.00  1.00  1.00  1.00  1.00  1.00  0.95  0.90  0.85  0.90  0.95  1.00  1.00  1.00  1.00  1.00  1.00  1.00
1.00  1.00  1.00  1.00  1.00  1.00  1.00  1.00  1.00  1.00  1.00  1.00  1.00  0.95  0.90  0.85  0.90  0.95  1.00  1.00  1.00  1.00  1.00  1.00  1.00
1.00  1.00  1.00  1.00  1.00  1.00  1.00  1.00  1.00  1.00  1.00  1.00  1.00  0.95  0.90  0.85  0.90  0.95  1.00  1.00  1.00  1.00  1.00  1.00  1.00
1.00  1.00  1.00  1.00  1.00  1.00  1.00  1.00  1.00  1.00  1.00  1.00  1.00  0.95  0.90  0.85  0.90  0.95  1.00  1.00  1.00  1.00  1.00  1.00  1.00
1.00  1.00  1.00  1.00  1.00  1.00  1.00  1.00  1.00  1.00  1.00  1.00  1.00  0.95  0.90  0.85  0.90  0.95  1.00  1.00  1.00  1.00  1.00  1.00  1.00
1.00  1.00  1.00  1.00  1.00  1.00  1.00  1.00  1.00  1.00  1.00  1.00  1.00  0.95  0.90  0.85  0.90  0.95  1.00  1.00  1.00  1.00  1.00  1.00  1.00
1.00  1.00  1.00  1.00  1.00  1.00  1.00  1.00  1.00  1.00  1.00  1.00  1.00  0.95  0.90  0.85  0.90  0.95  1.00  1.00  1.00  1.00  1.00  1.00  1.00
1.00  1.00  1.00  1.00  1.00  1.00  1.00  1.00  1.00  1.00  1.00  1.00  1.00  0.95  0.90  0.85  0.90  0.95  1.00  1.00  1.00  1.00  1.00  1.00  1.00
1.00  1.00  1.00  1.00  1.00  1.00  1.00  1.00  1.00  1.00  1.00  1.00  1.00  0.95  0.90  0.85  0.90  0.95  1.00  1.00  1.00  1.00  1.00  1.00  1.00
1.00  1.00  1.00  1.00  1.00  1.00  1.00  1.00  1.00  1.00  1.00  1.00  1.00  0.95  0.90  0.85  0.90  0.95  1.00  1.00  1.00  1.00  1.00  1.00  1.00
1.00  1.00  1.00  1.00  1.00  1.00  1.00  1.00  1.00  1.00  1.00  1.00  1.00  0.95  0.90  0.85  0.90  0.95  1.00  1.00  1.00  1.00  1.00  1.00  1.00
1.00  1.00  1.00  1.00  1.00  1.00  1.00  1.00  1.00  1.00  1.00  1.00  1.00  0.95  0.90  0.85  0.90  0.95  1.00  1.00  1.00  1.00  1.00  1.00  1.00
1.00  1.00  1.00  1.00  1.00  1.00  1.00  1.00  1.00  1.00  1.00  1.00  1.00  0.95  0.90  0.85  0.90  0.95  1.00  1.00  1.00  1.00  1.00  1.00  1.00
1.00  1.00  1.00  1.00  1.00  1.00  1.00  1.00  1.00  1.00  1.00  1.00  1.00  0.95  0.90  0.85  0.90  0.95  1.00  1.00  1.00  1.00  1.00  1.00  1.00
1.00  1.00  1.00  1.00  1.00  1.00  1.00  1.00  1.00  1.00  1.00  1.00  1.00  0.95  0.90  0.85  0.90  0.95  1.00  1.00  1.00  1.00  1.00  1.00  1.00
1.00  1.00  1.00  1.00  1.00  1.00  1.00  1.00  1.00  1.00  1.00  1.00  1.00  0.95  0.90  0.85  0.90  0.95  1.00  1.00  1.00  1.00  1.00  1.00  1.00
1.00  1.00  1.00  1.00  1.00  1.00  1.00  1.00  1.00  1.00  1.00  1.00  1.00  0.95  0.90  0.85  0.90  0.95  1.00  1.00  1.00  1.00  1.00  1.00  1.00
1.00  1.00  1.00  1.00  1.00  1.00  1.00  1.00  1.00  1.00  1.00  1.00  1.00  0.95  0.90  0.85  0.90  0.95  1.00  1.00  1.00  1.00  1.00  1.00  1.00
1.00  1.00  1.00  1.00  1.00  1.00  1.00  1.00  1.00  1.00  1.00  1.00  1.00  0.95  0.90  0.85  0.90  0.95  1.00  1.00  1.00  1.00  1.00  1.00  1.00
$beta by ik, ith
1.00  1.00  1.00  1.00  1.00  1.00  1.00  1.00  1.00  1.00  1.00  1.00  1.00  0.95  0.90  0.85  0.90  0.95  1.00  1.00  1.00  1.00  1.00  1.00  1.00
1.00  1.00  1.00  1.00  1.00  1.00  1.00  1.00  1.00  1.00  1.00  1.00  1.00  0.95  0.90  0.85  0.90  0.95  1.00  1.00  1.00  1.00  1.00  1.00  1.00
1.00  1.00  1.00  1.00  1.00  1.00  1.00  1.00  1.00  1.00  1.00  1.00  1.00  0.95  0.90  0.85  0.90  0.95  1.00  1.00  1.00  1.00  1.00  1.00  1.00
1.00  1.00  1.00  1.00  1.00  1.00  1.00  1.00  1.00  1.00  1.00  1.00  1.00  0.95  0.90  0.85  0.90  0.95  1.00  1.00  1.00  1.00  1.00  1.00  1.00
1.00  1.00  1.00  1.00  1.00  1.00  1.00  1.00  1.00  1.00  1.00  1.00  1.00  0.95  0.90  0.85  0.90  0.95  1.00  1.00  1.00  1.00  1.00  1.00  1.00
1.00  1.00  1.00  1.00  1.00  1.00  1.00  1.00  1.00  1.00  1.00  1.00  1.00  0.95  0.90  0.85  0.90  0.95  1.00  1.00  1.00  1.00  1.00  1.00  1.00
1.00  1.00  1.00  1.00  1.00  1.00  1.00  1.00  1.00  1.00  1.00  1.00  1.00  0.95  0.90  0.85  0.90  0.95  1.00  1.00  1.00  1.00  1.00  1.00  1.00
1.00  1.00  1.00  1.00  1.00  1.00  1.00  1.00  1.00  1.00  1.00  1.00  1.00  0.95  0.90  0.85  0.90  0.95  1.00  1.00  1.00  1.00  1.00  1.00  1.00
1.00  1.00  1.00  1.00  1.00  1.00  1.00  1.00  1.00  1.00  1.00  1.00  1.00  0.95  0.90  0.85  0.90  0.95  1.00  1.00  1.00  1.00  1.00  1.00  1.00
1.00  1.00  1.00  1.00  1.00  1.00  1.00  1.00  1.00  1.00  1.00  1.00  1.00  0.95  0.90  0.85  0.90  0.95  1.00  1.00  1.00  1.00  1.00  1.00  1.00
1.00  1.00  1.00  1.00  1.00  1.00  1.00  1.00  1.00  1.00  1.00  1.00  1.00  0.95  0.90  0.85  0.90  0.95  1.00  1.00  1.00  1.00  1.00  1.00  1.00
1.00  1.00  1.00  1.00  1.00  1.00  1.00  1.00  1.00  1.00  1.00  1.00  1.00  0.95  0.90  0.85  0.90  0.95  1.00  1.00  1.00  1.00  1.00  1.00  1.00
1.00  1.00  1.00  1.00  1.00  1.00  1.00  1.00  1.00  1.00  1.00  1.00  1.00  0.95  0.90  0.85  0.90  0.95  1.00  1.00  1.00  1.00  1.00  1.00  1.00
1.00  1.00  1.00  1.00  1.00  1.00  1.00  1.00  1.00  1.00  1.00  1.00  1.00  0.95  0.90  0.85  0.90  0.95  1.00  1.00  1.00  1.00  1.00  1.00  1.00
1.00  1.00  1.00  1.00  1.00  1.00  1.00  1.00  1.00  1.00  1.00  1.00  1.00  0.95  0.90  0.85  0.90  0.95  1.00  1.00  1.00  1.00  1.00  1.00  1.00
1.00  1.00  1.00  1.00  1.00  1.00  1.00  1.00  1.00  1.00  1.00  1.00  1.00  0.95  0.90  0.85  0.90  0.95  1.00  1.00  1.00  1.00  1.00  1.00  1.00
1.00  1.00  1.00  1.00  1.00  1.00  1.00  1.00  1.00  1.00  1.00  1.00  1.00  0.95  0.90  0.85  0.90  0.95  1.00  1.00  1.00  1.00  1.00  1.00  1.00
1.00  1.00  1.00  1.00  1.00  1.00  1.00  1.00  1.00  1.00  1.00  1.00  1.00  0.95  0.90  0.85  0.90  0.95  1.00  1.00  1.00  1.00  1.00  1.00  1.00
1.00  1.00  1.00  1.00  1.00  1.00  1.00  1.00  1.00  1.00  1.00  1.00  1.00  0.95  0.90  0.85  0.90  0.95  1.00  1.00  1.00  1.00  1.00  1.00  1.00
1.00  1.00  1.00  1.00  1.00  1.00  1.00  1.00  1.00  1.00  1.00  1.00  1.00  0.95  0.90  0.85  0.90  0.95  1.00  1.00  1.00  1.00  1.00  1.00  1.00
1.00  1.00  1.00  1.00  1.00  1.00  1.00  1.00  1.00  1.00  1.00  1.00  1.00  0.95  0.90  0.85  0.90  0.95  1.00  1.00  1.00  1.00  1.00  1.00  1.00
1.00  1.00  1.00  1.00  1.00  1.00  1.00  1.00  1.00  1.00  1.00  1.00  1.00  0.95  0.90  0.85  0.90  0.95  1.00  1.00  1.00  1.00  1.00  1.00  1.00
1.00  1.00  1.00  1.00  1.00  1.00  1.00  1.00  1.00  1.00  1.00  1.00  1.00  0.95  0.90  0.85  0.90  0.95  1.00  1.00  1.00  1.00  1.00  1.00  1.00
1.00  1.00  1.00  1.00  1.00  1.00  1.00  1.00  1.00  1.00  1.00  1.00  1.00  0.95  0.90  0.85  0.90  0.95  1.00  1.00  1.00  1.00  1.00  1.00  1.00
1.00  1.00  1.00  1.00  1.00  1.00  1.00  1.00  1.00  1.00  1.00  1.00  1.00  0.95  0.90  0.85  0.90  0.95  1.00  1.00  1.00  1.00  1.00  1.00  1.00
$ ilon ilat of the cell. lon: -94.5, 14.0
58   57
$ sizes of the cell in km
   161.943      180.283      202.190      232.476      205.194      184.948      166.792      184.948      205.194      232.476      202.190      180.283      161.943      180.283      202.190      232.476      205.194      184.948      166.792      184.948      205.194      232.476      202.190      180.283      161.943
$ mean alpha: 0.964800202892
$ mean beta: 0.964800202892
$alpha by ik, ith
1.00  1.00  1.00  1.00  1.00  1.00  1.00  1.00  1.00  1.00  0.95  0.90  0.85  0.85  0.85  0.85  0.90  0.95  1.00  1.00  1.00  1.00  1.00  1.00  1.00
1.00  1.00  1.00  1.00  1.00  1.00  1.00  1.00  1.00  1.00  0.95  0.90  0.85  0.85  0.85  0.85  0.90  0.95  1.00  1.00  1.00  1.00  1.00  1.00  1.00
1.00  1.00  1.00  1.00  1.00  1.00  1.00  1.00  1.00  1.00  0.95  0.90  0.85  0.85  0.85  0.85  0.90  0.95  1.00  1.00  1.00  1.00  1.00  1.00  1.00
1.00  1.00  1.00  1.00  1.00  1.00  1.00  1.00  1.00  1.00  0.95  0.90  0.85  0.85  0.85  0.85  0.90  0.95  1.00  1.00  1.00  1.00  1.00  1.00  1.00
1.00  1.00  1.00  1.00  1.00  1.00  1.00  1.00  1.00  1.00  0.95  0.90  0.85  0.85  0.85  0.85  0.90  0.95  1.00  1.00  1.00  1.00  1.00  1.00  1.00
1.00  1.00  1.00  1.00  1.00  1.00  1.00  1.00  1.00  1.00  0.95  0.90  0.85  0.85  0.85  0.85  0.90  0.95  1.00  1.00  1.00  1.00  1.00  1.00  1.00
1.00  1.00  1.00  1.00  1.00  1.00  1.00  1.00  1.00  1.00  0.95  0.90  0.85  0.85  0.85  0.85  0.90  0.95  1.00  1.00  1.00  1.00  1.00  1.00  1.00
1.00  1.00  1.00  1.00  1.00  1.00  1.00  1.00  1.00  1.00  0.95  0.90  0.85  0.85  0.85  0.85  0.90  0.95  1.00  1.00  1.00  1.00  1.00  1.00  1.00
1.00  1.00  1.00  1.00  1.00  1.00  1.00  1.00  1.00  1.00  0.95  0.90  0.85  0.85  0.85  0.85  0.90  0.95  1.00  1.00  1.00  1.00  1.00  1.00  1.00
1.00  1.00  1.00  1.00  1.00  1.00  1.00  1.00  1.00  1.00  0.95  0.90  0.85  0.85  0.85  0.85  0.90  0.95  1.00  1.00  1.00  1.00  1.00  1.00  1.00
1.00  1.00  1.00  1.00  1.00  1.00  1.00  1.00  1.00  1.00  0.95  0.90  0.85  0.85  0.85  0.85  0.90  0.95  1.00  1.00  1.00  1.00  1.00  1.00  1.00
1.00  1.00  1.00  1.00  1.00  1.00  1.00  1.00  1.00  1.00  0.95  0.90  0.85  0.85  0.85  0.85  0.90  0.95  1.00  1.00  1.00  1.00  1.00  1.00  1.00
1.00  1.00  1.00  1.00  1.00  1.00  1.00  1.00  1.00  1.00  0.95  0.90  0.85  0.85  0.85  0.85  0.90  0.95  1.00  1.00  1.00  1.00  1.00  1.00  1.00
1.00  1.00  1.00  1.00  1.00  1.00  1.00  1.00  1.00  1.00  0.95  0.90  0.85  0.85  0.85  0.85  0.90  0.95  1.00  1.00  1.00  1.00  1.00  1.00  1.00
1.00  1.00  1.00  1.00  1.00  1.00  1.00  1.00  1.00  1.00  0.95  0.90  0.85  0.85  0.85  0.85  0.90  0.95  1.00  1.00  1.00  1.00  1.00  1.00  1.00
1.00  1.00  1.00  1.00  1.00  1.00  1.00  1.00  1.00  1.00  0.95  0.90  0.85  0.85  0.85  0.85  0.90  0.95  1.00  1.00  1.00  1.00  1.00  1.00  1.00
1.00  1.00  1.00  1.00  1.00  1.00  1.00  1.00  1.00  1.00  0.95  0.90  0.85  0.85  0.85  0.85  0.90  0.95  1.00  1.00  1.00  1.00  1.00  1.00  1.00
1.00  1.00  1.00  1.00  1.00  1.00  1.00  1.00  1.00  1.00  0.95  0.90  0.85  0.85  0.85  0.85  0.90  0.95  1.00  1.00  1.00  1.00  1.00  1.00  1.00
1.00  1.00  1.00  1.00  1.00  1.00  1.00  1.00  1.00  1.00  0.95  0.90  0.85  0.85  0.85  0.85  0.90  0.95  1.00  1.00  1.00  1.00  1.00  1.00  1.00
1.00  1.00  1.00  1.00  1.00  1.00  1.00  1.00  1.00  1.00  0.95  0.90  0.85  0.85  0.85  0.85  0.90  0.95  1.00  1.00  1.00  1.00  1.00  1.00  1.00
1.00  1.00  1.00  1.00  1.00  1.00  1.00  1.00  1.00  1.00  0.95  0.90  0.85  0.85  0.85  0.85  0.90  0.95  1.00  1.00  1.00  1.00  1.00  1.00  1.00
1.00  1.00  1.00  1.00  1.00  1.00  1.00  1.00  1.00  1.00  0.95  0.90  0.85  0.85  0.85  0.85  0.90  0.95  1.00  1.00  1.00  1.00  1.00  1.00  1.00
1.00  1.00  1.00  1.00  1.00  1.00  1.00  1.00  1.00  1.00  0.95  0.90  0.85  0.85  0.85  0.85  0.90  0.95  1.00  1.00  1.00  1.00  1.00  1.00  1.00
1.00  1.00  1.00  1.00  1.00  1.00  1.00  1.00  1.00  1.00  0.95  0.90  0.85  0.85  0.85  0.85  0.90  0.95  1.00  1.00  1.00  1.00  1.00  1.00  1.00
1.00  1.00  1.00  1.00  1.00  1.00  1.00  1.00  1.00  1.00  0.95  0.90  0.85  0.85  0.85  0.85  0.90  0.95  1.00  1.00  1.00  1.00  1.00  1.00  1.00
$beta by ik, ith
1.00  1.00  1.00  1.00  1.00  1.00  1.00  1.00  1.00  1.00  0.95  0.90  0.85  0.85  0.85  0.85  0.90  0.95  1.00  1.00  1.00  1.00  1.00  1.00  1.00
1.00  1.00  1.00  1.00  1.00  1.00  1.00  1.00  1.00  1.00  0.95  0.90  0.85  0.85  0.85  0.85  0.90  0.95  1.00  1.00  1.00  1.00  1.00  1.00  1.00
1.00  1.00  1.00  1.00  1.00  1.00  1.00  1.00  1.00  1.00  0.95  0.90  0.85  0.85  0.85  0.85  0.90  0.95  1.00  1.00  1.00  1.00  1.00  1.00  1.00
1.00  1.00  1.00  1.00  1.00  1.00  1.00  1.00  1.00  1.00  0.95  0.90  0.85  0.85  0.85  0.85  0.90  0.95  1.00  1.00  1.00  1.00  1.00  1.00  1.00
1.00  1.00  1.00  1.00  1.00  1.00  1.00  1.00  1.00  1.00  0.95  0.90  0.85  0.85  0.85  0.85  0.90  0.95  1.00  1.00  1.00  1.00  1.00  1.00  1.00
1.00  1.00  1.00  1.00  1.00  1.00  1.00  1.00  1.00  1.00  0.95  0.90  0.85  0.85  0.85  0.85  0.90  0.95  1.00  1.00  1.00  1.00  1.00  1.00  1.00
1.00  1.00  1.00  1.00  1.00  1.00  1.00  1.00  1.00  1.00  0.95  0.90  0.85  0.85  0.85  0.85  0.90  0.95  1.00  1.00  1.00  1.00  1.00  1.00  1.00
1.00  1.00  1.00  1.00  1.00  1.00  1.00  1.00  1.00  1.00  0.95  0.90  0.85  0.85  0.85  0.85  0.90  0.95  1.00  1.00  1.00  1.00  1.00  1.00  1.00
1.00  1.00  1.00  1.00  1.00  1.00  1.00  1.00  1.00  1.00  0.95  0.90  0.85  0.85  0.85  0.85  0.90  0.95  1.00  1.00  1.00  1.00  1.00  1.00  1.00
1.00  1.00  1.00  1.00  1.00  1.00  1.00  1.00  1.00  1.00  0.95  0.90  0.85  0.85  0.85  0.85  0.90  0.95  1.00  1.00  1.00  1.00  1.00  1.00  1.00
1.00  1.00  1.00  1.00  1.00  1.00  1.00  1.00  1.00  1.00  0.95  0.90  0.85  0.85  0.85  0.85  0.90  0.95  1.00  1.00  1.00  1.00  1.00  1.00  1.00
1.00  1.00  1.00  1.00  1.00  1.00  1.00  1.00  1.00  1.00  0.95  0.90  0.85  0.85  0.85  0.85  0.90  0.95  1.00  1.00  1.00  1.00  1.00  1.00  1.00
1.00  1.00  1.00  1.00  1.00  1.00  1.00  1.00  1.00  1.00  0.95  0.90  0.85  0.85  0.85  0.85  0.90  0.95  1.00  1.00  1.00  1.00  1.00  1.00  1.00
1.00  1.00  1.00  1.00  1.00  1.00  1.00  1.00  1.00  1.00  0.95  0.90  0.85  0.85  0.85  0.85  0.90  0.95  1.00  1.00  1.00  1.00  1.00  1.00  1.00
1.00  1.00  1.00  1.00  1.00  1.00  1.00  1.00  1.00  1.00  0.95  0.90  0.85  0.85  0.85  0.85  0.90  0.95  1.00  1.00  1.00  1.00  1.00  1.00  1.00
1.00  1.00  1.00  1.00  1.00  1.00  1.00  1.00  1.00  1.00  0.95  0.90  0.85  0.85  0.85  0.85  0.90  0.95  1.00  1.00  1.00  1.00  1.00  1.00  1.00
1.00  1.00  1.00  1.00  1.00  1.00  1.00  1.00  1.00  1.00  0.95  0.90  0.85  0.85  0.85  0.85  0.90  0.95  1.00  1.00  1.00  1.00  1.00  1.00  1.00
1.00  1.00  1.00  1.00  1.00  1.00  1.00  1.00  1.00  1.00  0.95  0.90  0.85  0.85  0.85  0.85  0.90  0.95  1.00  1.00  1.00  1.00  1.00  1.00  1.00
1.00  1.00  1.00  1.00  1.00  1.00  1.00  1.00  1.00  1.00  0.95  0.90  0.85  0.85  0.85  0.85  0.90  0.95  1.00  1.00  1.00  1.00  1.00  1.00  1.00
1.00  1.00  1.00  1.00  1.00  1.00  1.00  1.00  1.00  1.00  0.95  0.90  0.85  0.85  0.85  0.85  0.90  0.95  1.00  1.00  1.00  1.00  1.00  1.00  1.00
1.00  1.00  1.00  1.00  1.00  1.00  1.00  1.00  1.00  1.00  0.95  0.90  0.85  0.85  0.85  0.85  0.90  0.95  1.00  1.00  1.00  1.00  1.00  1.00  1.00
1.00  1.00  1.00  1.00  1.00  1.00  1.00  1.00  1.00  1.00  0.95  0.90  0.85  0.85  0.85  0.85  0.90  0.95  1.00  1.00  1.00  1.00  1.00  1.00  1.00
1.00  1.00  1.00  1.00  1.00  1.00  1.00  1.00  1.00  1.00  0.95  0.90  0.85  0.85  0.85  0.85  0.90  0.95  1.00  1.00  1.00  1.00  1.00  1.00  1.00
1.00  1.00  1.00  1.00  1.00  1.00  1.00  1.00  1.00  1.00  0.95  0.90  0.85  0.85  0.85  0.85  0.90  0.95  1.00  1.00  1.00  1.00  1.00  1.00  1.00
1.00  1.00  1.00  1.00  1.00  1.00  1.00  1.00  1.00  1.00  0.95  0.90  0.85  0.85  0.85  0.85  0.90  0.95  1.00  1.00  1.00  1.00  1.00  1.00  1.00
$ ilon ilat of the cell. lon: -94.5, 20.0
58   61
$ sizes of the cell in km
   156.882      175.054      197.542      228.980      203.680      184.587      166.792      184.587      203.680      228.980      197.542      175.054      156.882      175.054      197.542      228.980      203.680      184.587      166.792      184.587      203.680      228.980      197.542      175.054      156.882
$ mean alpha: 0.99040011014
$ mean beta: 0.991581636874
$alpha by ik, ith
1.00  1.00  1.00  1.00  1.00  1.00  1.00  1.00  1.00  1.00  0.99  0.98  0.97  0.96  0.96  0.95  0.96  0.98  1.00  1.00  1.00  1.00  1.00  1.00  1.00
1.00  1.00  1.00  1.00  1.00  1.00  1.00  1.00  1.00  1.00  0.99  0.98  0.97  0.96  0.96  0.95  0.96  0.98  1.00  1.00  1.00  1.00  1.00  1.00  1.00
1.00  1.00  1.00  1.00  1.00  1.00  1.00  1.00  1.00  1.00  0.99  0.98  0.97  0.96  0.96  0.95  0.96  0.98  1.00  1.00  1.00  1.00  1.00  1.00  1.00
1.00  1.00  1.00  1.00  1.00  1.00  1.00  1.00  1.00  1.00  0.99  0.98  0.97  0.96  0.96  0.95  0.96  0.98  1.00  1.00  1.00  1.00  1.00  1.00  1.00
1.00  1.00  1.00  1.00  1.00  1.00  1.00  1.00  1.00  1.00  0.99  0.98  0.97  0.96  0.96  0.95  0.96  0.98  1.00  1.00  1.00  1.00  1.00  1.00  1.00
1.00  1.00  1.00  1.00  1.00  1.00  1.00  1.00  1.00  1.00  0.99  0.98  0.97  0.96  0.96  0.95  0.96  0.98  1.00  1.00  1.00  1.00  1.00  1.00  1.00
1.00  1.00  1.00  1.00  1.00  1.00  1.00  1.00  1.00  1.00  0.99  0.98  0.97  0.96  0.96  0.95  0.96  0.98  1.00  1.00  1.00  1.00  1.00  1.00  1.00
1.00  1.00  1.00  1.00  1.00  1.00  1.00  1.00  1.00  1.00  0.99  0.98  0.97  0.96  0.96  0.95  0.96  0.98  1.00  1.00  1.00  1.00  1.00  1.00  1.00
1.00  1.00  1.00  1.00  1.00  1.00  1.00  1.00  1.00  1.00  0.99  0.98  0.97  0.96  0.96  0.95  0.96  0.98  1.00  1.00  1.00  1.00  1.00  1.00  1.00
1.00  1.00  1.00  1.00  1.00  1.00  1.00  1.00  1.00  1.00  0.99  0.98  0.97  0.96  0.96  0.95  0.96  0.98  1.00  1.00  1.00  1.00  1.00  1.00  1.00
1.00  1.00  1.00  1.00  1.00  1.00  1.00  1.00  1.00  1.00  0.99  0.98  0.97  0.96  0.96  0.95  0.96  0.98  1.00  1.00  1.00  1.00  1.00  1.00  1.00
1.00  1.00  1.00  1.00  1.00  1.00  1.00  1.00  1.00  1.00  0.99  0.98  0.97  0.96  0.96  0.95  0.96  0.98  1.00  1.00  1.00  1.00  1.00  1.00  1.00
1.00  1.00  1.00  1.00  1.00  1.00  1.00  1.00  1.00  1.00  0.99  0.98  0.97  0.96  0.96  0.95  0.96  0.98  1.00  1.00  1.00  1.00  1.00  1.00  1.00
1.00  1.00  1.00  1.00  1.00  1.00  1.00  1.00  1.00  1.00  0.99  0.98  0.97  0.96  0.96  0.95  0.96  0.98  1.00  1.00  1.00  1.00  1.00  1.00  1.00
1.00  1.00  1.00  1.00  1.00  1.00  1.00  1.00  1.00  1.00  0.99  0.98  0.97  0.96  0.96  0.95  0.96  0.98  1.00  1.00  1.00  1.00  1.00  1.00  1.00
1.00  1.00  1.00  1.00  1.00  1.00  1.00  1.00  1.00  1.00  0.99  0.98  0.97  0.96  0.96  0.95  0.96  0.98  1.00  1.00  1.00  1.00  1.00  1.00  1.00
1.00  1.00  1.00  1.00  1.00  1.00  1.00  1.00  1.00  1.00  0.99  0.98  0.97  0.96  0.96  0.95  0.96  0.98  1.00  1.00  1.00  1.00  1.00  1.00  1.00
1.00  1.00  1.00  1.00  1.00  1.00  1.00  1.00  1.00  1.00  0.99  0.98  0.97  0.96  0.96  0.95  0.96  0.98  1.00  1.00  1.00  1.00  1.00  1.00  1.00
1.00  1.00  1.00  1.00  1.00  1.00  1.00  1.00  1.00  1.00  0.99  0.98  0.97  0.96  0.96  0.95  0.96  0.98  1.00  1.00  1.00  1.00  1.00  1.00  1.00
1.00  1.00  1.00  1.00  1.00  1.00  1.00  1.00  1.00  1.00  0.99  0.98  0.97  0.96  0.96  0.95  0.96  0.98  1.00  1.00  1.00  1.00  1.00  1.00  1.00
1.00  1.00  1.00  1.00  1.00  1.00  1.00  1.00  1.00  1.00  0.99  0.98  0.97  0.96  0.96  0.95  0.96  0.98  1.00  1.00  1.00  1.00  1.00  1.00  1.00
1.00  1.00  1.00  1.00  1.00  1.00  1.00  1.00  1.00  1.00  0.99  0.98  0.97  0.96  0.96  0.95  0.96  0.98  1.00  1.00  1.00  1.00  1.00  1.00  1.00
1.00  1.00  1.00  1.00  1.00  1.00  1.00  1.00  1.00  1.00  0.99  0.98  0.97  0.96  0.96  0.95  0.96  0.98  1.00  1.00  1.00  1.00  1.00  1.00  1.00
1.00  1.00  1.00  1.00  1.00  1.00  1.00  1.00  1.00  1.00  0.99  0.98  0.97  0.96  0.96  0.95  0.96  0.98  1.00  1.00  1.00  1.00  1.00  1.00  1.00
1.00  1.00  1.00  1.00  1.00  1.00  1.00  1.00  1.00  1.00  0.99  0.98  0.97  0.96  0.96  0.95  0.96  0.98  1.00  1.00  1.00  1.00  1.00  1.00  1.00
$beta by ik, ith
1.00  1.00  1.00  1.00  1.00  1.00  1.00  1.00  1.00  1.00  0.99  0.98  0.97  0.97  0.96  0.96  0.97  0.99  1.00  1.00  1.00  1.00  1.00  1.00  1.00
1.00  1.00  1.00  1.00  1.00  1.00  1.00  1.00  1.00  1.00  0.99  0.98  0.97  0.97  0.96  0.96  0.97  0.99  1.00  1.00  1.00  1.00  1.00  1.00  1.00
1.00  1.00  1.00  1.00  1.00  1.00  1.00  1.00  1.00  1.00  0.99  0.98  0.97  0.97  0.96  0.96  0.97  0.99  1.00  1.00  1.00  1.00  1.00  1.00  1.00
1.00  1.00  1.00  1.00  1.00  1.00  1.00  1.00  1.00  1.00  0.99  0.98  0.97  0.97  0.96  0.96  0.97  0.99  1.00  1.00  1.00  1.00  1.00  1.00  1.00
1.00  1.00  1.00  1.00  1.00  1.00  1.00  1.00  1.00  1.00  0.99  0.98  0.97  0.97  0.96  0.96  0.97  0.99  1.00  1.00  1.00  1.00  1.00  1.00  1.00
1.00  1.00  1.00  1.00  1.00  1.00  1.00  1.00  1.00  1.00  0.99  0.98  0.97  0.97  0.96  0.96  0.97  0.99  1.00  1.00  1.00  1.00  1.00  1.00  1.00
1.00  1.00  1.00  1.00  1.00  1.00  1.00  1.00  1.00  1.00  0.99  0.98  0.97  0.97  0.96  0.96  0.97  0.99  1.00  1.00  1.00  1.00  1.00  1.00  1.00
1.00  1.00  1.00  1.00  1.00  1.00  1.00  1.00  1.00  1.00  0.99  0.98  0.97  0.97  0.96  0.96  0.97  0.99  1.00  1.00  1.00  1.00  1.00  1.00  1.00
1.00  1.00  1.00  1.00  1.00  1.00  1.00  1.00  1.00  1.00  0.99  0.98  0.97  0.97  0.96  0.96  0.97  0.99  1.00  1.00  1.00  1.00  1.00  1.00  1.00
1.00  1.00  1.00  1.00  1.00  1.00  1.00  1.00  1.00  1.00  0.99  0.98  0.97  0.97  0.96  0.96  0.97  0.99  1.00  1.00  1.00  1.00  1.00  1.00  1.00
1.00  1.00  1.00  1.00  1.00  1.00  1.00  1.00  1.00  1.00  0.99  0.98  0.97  0.97  0.96  0.96  0.97  0.99  1.00  1.00  1.00  1.00  1.00  1.00  1.00
1.00  1.00  1.00  1.00  1.00  1.00  1.00  1.00  1.00  1.00  0.99  0.98  0.97  0.97  0.96  0.96  0.97  0.99  1.00  1.00  1.00  1.00  1.00  1.00  1.00
1.00  1.00  1.00  1.00  1.00  1.00  1.00  1.00  1.00  1.00  0.99  0.98  0.97  0.97  0.96  0.96  0.97  0.99  1.00  1.00  1.00  1.00  1.00  1.00  1.00
1.00  1.00  1.00  1.00  1.00  1.00  1.00  1.00  1.00  1.00  0.99  0.98  0.97  0.97  0.96  0.96  0.97  0.99  1.00  1.00  1.00  1.00  1.00  1.00  1.00
1.00  1.00  1.00  1.00  1.00  1.00  1.00  1.00  1.00  1.00  0.99  0.98  0.97  0.97  0.96  0.96  0.97  0.99  1.00  1.00  1.00  1.00  1.00  1.00  1.00
1.00  1.00  1.00  1.00  1.00  1.00  1.00  1.00  1.00  1.00  0.99  0.98  0.97  0.97  0.96  0.96  0.97  0.99  1.00  1.00  1.00  1.00  1.00  1.00  1.00
1.00  1.00  1.00  1.00  1.00  1.00  1.00  1.00  1.00  1.00  0.99  0.98  0.97  0.97  0.96  0.96  0.97  0.99  1.00  1.00  1.00  1.00  1.00  1.00  1.00
1.00  1.00  1.00  1.00  1.00  1.00  1.00  1.00  1.00  1.00  0.99  0.98  0.97  0.97  0.96  0.96  0.97  0.99  1.00  1.00  1.00  1.00  1.00  1.00  1.00
1.00  1.00  1.00  1.00  1.00  1.00  1.00  1.00  1.00  1.00  0.99  0.98  0.97  0.97  0.96  0.96  0.97  0.99  1.00  1.00  1.00  1.00  1.00  1.00  1.00
1.00  1.00  1.00  1.00  1.00  1.00  1.00  1.00  1.00  1.00  0.99  0.98  0.97  0.97  0.96  0.96  0.97  0.99  1.00  1.00  1.00  1.00  1.00  1.00  1.00
1.00  1.00  1.00  1.00  1.00  1.00  1.00  1.00  1.00  1.00  0.99  0.98  0.97  0.97  0.96  0.96  0.97  0.99  1.00  1.00  1.00  1.00  1.00  1.00  1.00
1.00  1.00  1.00  1.00  1.00  1.00  1.00  1.00  1.00  1.00  0.99  0.98  0.97  0.97  0.96  0.96  0.97  0.99  1.00  1.00  1.00  1.00  1.00  1.00  1.00
1.00  1.00  1.00  1.00  1.00  1.00  1.00  1.00  1.00  1.00  0.99  0.98  0.97  0.97  0.96  0.96  0.97  0.99  1.00  1.00  1.00  1.00  1.00  1.00  1.00
1.00  1.00  1.00  1.00  1.00  1.00  1.00  1.00  1.00  1.00  0.99  0.98  0.97  0.97  0.96  0.96  0.97  0.99  1.00  1.00  1.00  1.00  1.00  1.00  1.00
1.00  1.00  1.00  1.00  1.00  1.00  1.00  1.00  1.00  1.00  0.99  0.98  0.97  0.97  0.96  0.96  0.97  0.99  1.00  1.00  1.00  1.00  1.00  1.00  1.00
$ ilon ilat of the cell. lon: -94.5, 21.5
58   62
$ sizes of the cell in km
   155.346      173.469      196.139      227.930      203.227      184.480      166.792      184.480      203.227      227.930      196.139      173.469      155.346      173.469      196.139      227.930      203.227      184.480      166.792      184.480      203.227      227.930      196.139      173.469      155.346
$ mean alpha: 0.992800097707
$ mean beta: 0.993601789439
$alpha by ik, ith
1.00  1.00  1.00  1.00  1.00  1.00  1.00  0.99  0.99  0.98  0.97  0.97  0.96  0.97  0.99  1.00  1.00  1.00  1.00  1.00  1.00  1.00  1.00  1.00  1.00
1.00  1.00  1.00  1.00  1.00  1.00  1.00  0.99  0.99  0.98  0.97  0.97  0.96  0.97  0.99  1.00  1.00  1.00  1.00  1.00  1.00  1.00  1.00  1.00  1.00
1.00  1.00  1.00  1.00  1.00  1.00  1.00  0.99  0.99  0.98  0.97  0.97  0.96  0.97  0.99  1.00  1.00  1.00  1.00  1.00  1.00  1.00  1.00  1.00  1.00
1.00  1.00  1.00  1.00  1.00  1.00  1.00  0.99  0.99  0.98  0.97  0.97  0.96  0.97  0.99  1.00  1.00  1.00  1.00  1.00  1.00  1.00  1.00  1.00  1.00
1.00  1.00  1.00  1.00  1.00  1.00  1.00  0.99  0.99  0.98  0.97  0.97  0.96  0.97  0.99  1.00  1.00  1.00  1.00  1.00  1.00  1.00  1.00  1.00  1.00
1.00  1.00  1.00  1.00  1.00  1.00  1.00  0.99  0.99  0.98  0.97  0.97  0.96  0.97  0.99  1.00  1.00  1.00  1.00  1.00  1.00  1.00  1.00  1.00  1.00
1.00  1.00  1.00  1.00  1.00  1.00  1.00  0.99  0.99  0.98  0.97  0.97  0.96  0.97  0.99  1.00  1.00  1.00  1.00  1.00  1.00  1.00  1.00  1.00  1.00
1.00  1.00  1.00  1.00  1.00  1.00  1.00  0.99  0.99  0.98  0.97  0.97  0.96  0.97  0.99  1.00  1.00  1.00  1.00  1.00  1.00  1.00  1.00  1.00  1.00
1.00  1.00  1.00  1.00  1.00  1.00  1.00  0.99  0.99  0.98  0.97  0.97  0.96  0.97  0.99  1.00  1.00  1.00  1.00  1.00  1.00  1.00  1.00  1.00  1.00
1.00  1.00  1.00  1.00  1.00  1.00  1.00  0.99  0.99  0.98  0.97  0.97  0.96  0.97  0.99  1.00  1.00  1.00  1.00  1.00  1.00  1.00  1.00  1.00  1.00
1.00  1.00  1.00  1.00  1.00  1.00  1.00  0.99  0.99  0.98  0.97  0.97  0.96  0.97  0.99  1.00  1.00  1.00  1.00  1.00  1.00  1.00  1.00  1.00  1.00
1.00  1.00  1.00  1.00  1.00  1.00  1.00  0.99  0.99  0.98  0.97  0.97  0.96  0.97  0.99  1.00  1.00  1.00  1.00  1.00  1.00  1.00  1.00  1.00  1.00
1.00  1.00  1.00  1.00  1.00  1.00  1.00  0.99  0.99  0.98  0.97  0.97  0.96  0.97  0.99  1.00  1.00  1.00  1.00  1.00  1.00  1.00  1.00  1.00  1.00
1.00  1.00  1.00  1.00  1.00  1.00  1.00  0.99  0.99  0.98  0.97  0.97  0.96  0.97  0.99  1.00  1.00  1.00  1.00  1.00  1.00  1.00  1.00  1.00  1.00
1.00  1.00  1.00  1.00  1.00  1.00  1.00  0.99  0.99  0.98  0.97  0.97  0.96  0.97  0.99  1.00  1.00  1.00  1.00  1.00  1.00  1.00  1.00  1.00  1.00
1.00  1.00  1.00  1.00  1.00  1.00  1.00  0.99  0.99  0.98  0.97  0.97  0.96  0.97  0.99  1.00  1.00  1.00  1.00  1.00  1.00  1.00  1.00  1.00  1.00
1.00  1.00  1.00  1.00  1.00  1.00  1.00  0.99  0.99  0.98  0.97  0.97  0.96  0.97  0.99  1.00  1.00  1.00  1.00  1.00  1.00  1.00  1.00  1.00  1.00
1.00  1.00  1.00  1.00  1.00  1.00  1.00  0.99  0.99  0.98  0.97  0.97  0.96  0.97  0.99  1.00  1.00  1.00  1.00  1.00  1.00  1.00  1.00  1.00  1.00
1.00  1.00  1.00  1.00  1.00  1.00  1.00  0.99  0.99  0.98  0.97  0.97  0.96  0.97  0.99  1.00  1.00  1.00  1.00  1.00  1.00  1.00  1.00  1.00  1.00
1.00  1.00  1.00  1.00  1.00  1.00  1.00  0.99  0.99  0.98  0.97  0.97  0.96  0.97  0.99  1.00  1.00  1.00  1.00  1.00  1.00  1.00  1.00  1.00  1.00
1.00  1.00  1.00  1.00  1.00  1.00  1.00  0.99  0.99  0.98  0.97  0.97  0.96  0.97  0.99  1.00  1.00  1.00  1.00  1.00  1.00  1.00  1.00  1.00  1.00
1.00  1.00  1.00  1.00  1.00  1.00  1.00  0.99  0.99  0.98  0.97  0.97  0.96  0.97  0.99  1.00  1.00  1.00  1.00  1.00  1.00  1.00  1.00  1.00  1.00
1.00  1.00  1.00  1.00  1.00  1.00  1.00  0.99  0.99  0.98  0.97  0.97  0.96  0.97  0.99  1.00  1.00  1.00  1.00  1.00  1.00  1.00  1.00  1.00  1.00
1.00  1.00  1.00  1.00  1.00  1.00  1.00  0.99  0.99  0.98  0.97  0.97  0.96  0.97  0.99  1.00  1.00  1.00  1.00  1.00  1.00  1.00  1.00  1.00  1.00
1.00  1.00  1.00  1.00  1.00  1.00  1.00  0.99  0.99  0.98  0.97  0.97  0.96  0.97  0.99  1.00  1.00  1.00  1.00  1.00  1.00  1.00  1.00  1.00  1.00
$beta by ik, ith
1.00  1.00  1.00  1.00  1.00  1.00  1.00  1.00  0.99  0.99  0.98  0.97  0.96  0.97  0.99  1.00  1.00  1.00  1.00  1.00  1.00  1.00  1.00  1.00  1.00
1.00  1.00  1.00  1.00  1.00  1.00  1.00  1.00  0.99  0.99  0.98  0.97  0.96  0.97  0.99  1.00  1.00  1.00  1.00  1.00  1.00  1.00  1.00  1.00  1.00
1.00  1.00  1.00  1.00  1.00  1.00  1.00  1.00  0.99  0.99  0.98  0.97  0.96  0.97  0.99  1.00  1.00  1.00  1.00  1.00  1.00  1.00  1.00  1.00  1.00
1.00  1.00  1.00  1.00  1.00  1.00  1.00  1.00  0.99  0.99  0.98  0.97  0.96  0.97  0.99  1.00  1.00  1.00  1.00  1.00  1.00  1.00  1.00  1.00  1.00
1.00  1.00  1.00  1.00  1.00  1.00  1.00  1.00  0.99  0.99  0.98  0.97  0.96  0.97  0.99  1.00  1.00  1.00  1.00  1.00  1.00  1.00  1.00  1.00  1.00
1.00  1.00  1.00  1.00  1.00  1.00  1.00  1.00  0.99  0.99  0.98  0.97  0.96  0.97  0.99  1.00  1.00  1.00  1.00  1.00  1.00  1.00  1.00  1.00  1.00
1.00  1.00  1.00  1.00  1.00  1.00  1.00  1.00  0.99  0.99  0.98  0.97  0.96  0.97  0.99  1.00  1.00  1.00  1.00  1.00  1.00  1.00  1.00  1.00  1.00
1.00  1.00  1.00  1.00  1.00  1.00  1.00  1.00  0.99  0.99  0.98  0.97  0.96  0.97  0.99  1.00  1.00  1.00  1.00  1.00  1.00  1.00  1.00  1.00  1.00
1.00  1.00  1.00  1.00  1.00  1.00  1.00  1.00  0.99  0.99  0.98  0.97  0.96  0.97  0.99  1.00  1.00  1.00  1.00  1.00  1.00  1.00  1.00  1.00  1.00
1.00  1.00  1.00  1.00  1.00  1.00  1.00  1.00  0.99  0.99  0.98  0.97  0.96  0.97  0.99  1.00  1.00  1.00  1.00  1.00  1.00  1.00  1.00  1.00  1.00
1.00  1.00  1.00  1.00  1.00  1.00  1.00  1.00  0.99  0.99  0.98  0.97  0.96  0.97  0.99  1.00  1.00  1.00  1.00  1.00  1.00  1.00  1.00  1.00  1.00
1.00  1.00  1.00  1.00  1.00  1.00  1.00  1.00  0.99  0.99  0.98  0.97  0.96  0.97  0.99  1.00  1.00  1.00  1.00  1.00  1.00  1.00  1.00  1.00  1.00
1.00  1.00  1.00  1.00  1.00  1.00  1.00  1.00  0.99  0.99  0.98  0.97  0.96  0.97  0.99  1.00  1.00  1.00  1.00  1.00  1.00  1.00  1.00  1.00  1.00
1.00  1.00  1.00  1.00  1.00  1.00  1.00  1.00  0.99  0.99  0.98  0.97  0.96  0.97  0.99  1.00  1.00  1.00  1.00  1.00  1.00  1.00  1.00  1.00  1.00
1.00  1.00  1.00  1.00  1.00  1.00  1.00  1.00  0.99  0.99  0.98  0.97  0.96  0.97  0.99  1.00  1.00  1.00  1.00  1.00  1.00  1.00  1.00  1.00  1.00
1.00  1.00  1.00  1.00  1.00  1.00  1.00  1.00  0.99  0.99  0.98  0.97  0.96  0.97  0.99  1.00  1.00  1.00  1.00  1.00  1.00  1.00  1.00  1.00  1.00
1.00  1.00  1.00  1.00  1.00  1.00  1.00  1.00  0.99  0.99  0.98  0.97  0.96  0.97  0.99  1.00  1.00  1.00  1.00  1.00  1.00  1.00  1.00  1.00  1.00
1.00  1.00  1.00  1.00  1.00  1.00  1.00  1.00  0.99  0.99  0.98  0.97  0.96  0.97  0.99  1.00  1.00  1.00  1.00  1.00  1.00  1.00  1.00  1.00  1.00
1.00  1.00  1.00  1.00  1.00  1.00  1.00  1.00  0.99  0.99  0.98  0.97  0.96  0.97  0.99  1.00  1.00  1.00  1.00  1.00  1.00  1.00  1.00  1.00  1.00
1.00  1.00  1.00  1.00  1.00  1.00  1.00  1.00  0.99  0.99  0.98  0.97  0.96  0.97  0.99  1.00  1.00  1.00  1.00  1.00  1.00  1.00  1.00  1.00  1.00
1.00  1.00  1.00  1.00  1.00  1.00  1.00  1.00  0.99  0.99  0.98  0.97  0.96  0.97  0.99  1.00  1.00  1.00  1.00  1.00  1.00  1.00  1.00  1.00  1.00
1.00  1.00  1.00  1.00  1.00  1.00  1.00  1.00  0.99  0.99  0.98  0.97  0.96  0.97  0.99  1.00  1.00  1.00  1.00  1.00  1.00  1.00  1.00  1.00  1.00
1.00  1.00  1.00  1.00  1.00  1.00  1.00  1.00  0.99  0.99  0.98  0.97  0.96  0.97  0.99  1.00  1.00  1.00  1.00  1.00  1.00  1.00  1.00  1.00  1.00
1.00  1.00  1.00  1.00  1.00  1.00  1.00  1.00  0.99  0.99  0.98  0.97  0.96  0.97  0.99  1.00  1.00  1.00  1.00  1.00  1.00  1.00  1.00  1.00  1.00
1.00  1.00  1.00  1.00  1.00  1.00  1.00  1.00  0.99  0.99  0.98  0.97  0.96  0.97  0.99  1.00  1.00  1.00  1.00  1.00  1.00  1.00  1.00  1.00  1.00
$ ilon ilat of the cell. lon: -94.5, 23.0
58   63
$ sizes of the cell in km
   153.703      171.775      194.642      226.814      202.747      184.366      166.792      184.366      202.747      226.814      194.642      171.775      153.703      171.775      194.642      226.814      202.747      184.366      166.792      184.366      202.747      226.814      194.642      171.775      153.703
$ mean alpha: 0.996000036638
$ mean beta: 0.996000036638
$alpha by ik, ith
1.00  1.00  1.00  1.00  1.00  1.00  1.00  0.99  0.98  0.97  0.98  0.99  1.00  1.00  1.00  1.00  1.00  1.00  1.00  1.00  1.00  1.00  1.00  1.00  1.00
1.00  1.00  1.00  1.00  1.00  1.00  1.00  0.99  0.98  0.97  0.98  0.99  1.00  1.00  1.00  1.00  1.00  1.00  1.00  1.00  1.00  1.00  1.00  1.00  1.00
1.00  1.00  1.00  1.00  1.00  1.00  1.00  0.99  0.98  0.97  0.98  0.99  1.00  1.00  1.00  1.00  1.00  1.00  1.00  1.00  1.00  1.00  1.00  1.00  1.00
1.00  1.00  1.00  1.00  1.00  1.00  1.00  0.99  0.98  0.97  0.98  0.99  1.00  1.00  1.00  1.00  1.00  1.00  1.00  1.00  1.00  1.00  1.00  1.00  1.00
1.00  1.00  1.00  1.00  1.00  1.00  1.00  0.99  0.98  0.97  0.98  0.99  1.00  1.00  1.00  1.00  1.00  1.00  1.00  1.00  1.00  1.00  1.00  1.00  1.00
1.00  1.00  1.00  1.00  1.00  1.00  1.00  0.99  0.98  0.97  0.98  0.99  1.00  1.00  1.00  1.00  1.00  1.00  1.00  1.00  1.00  1.00  1.00  1.00  1.00
1.00  1.00  1.00  1.00  1.00  1.00  1.00  0.99  0.98  0.97  0.98  0.99  1.00  1.00  1.00  1.00  1.00  1.00  1.00  1.00  1.00  1.00  1.00  1.00  1.00
1.00  1.00  1.00  1.00  1.00  1.00  1.00  0.99  0.98  0.97  0.98  0.99  1.00  1.00  1.00  1.00  1.00  1.00  1.00  1.00  1.00  1.00  1.00  1.00  1.00
1.00  1.00  1.00  1.00  1.00  1.00  1.00  0.99  0.98  0.97  0.98  0.99  1.00  1.00  1.00  1.00  1.00  1.00  1.00  1.00  1.00  1.00  1.00  1.00  1.00
1.00  1.00  1.00  1.00  1.00  1.00  1.00  0.99  0.98  0.97  0.98  0.99  1.00  1.00  1.00  1.00  1.00  1.00  1.00  1.00  1.00  1.00  1.00  1.00  1.00
1.00  1.00  1.00  1.00  1.00  1.00  1.00  0.99  0.98  0.97  0.98  0.99  1.00  1.00  1.00  1.00  1.00  1.00  1.00  1.00  1.00  1.00  1.00  1.00  1.00
1.00  1.00  1.00  1.00  1.00  1.00  1.00  0.99  0.98  0.97  0.98  0.99  1.00  1.00  1.00  1.00  1.00  1.00  1.00  1.00  1.00  1.00  1.00  1.00  1.00
1.00  1.00  1.00  1.00  1.00  1.00  1.00  0.99  0.98  0.97  0.98  0.99  1.00  1.00  1.00  1.00  1.00  1.00  1.00  1.00  1.00  1.00  1.00  1.00  1.00
1.00  1.00  1.00  1.00  1.00  1.00  1.00  0.99  0.98  0.97  0.98  0.99  1.00  1.00  1.00  1.00  1.00  1.00  1.00  1.00  1.00  1.00  1.00  1.00  1.00
1.00  1.00  1.00  1.00  1.00  1.00  1.00  0.99  0.98  0.97  0.98  0.99  1.00  1.00  1.00  1.00  1.00  1.00  1.00  1.00  1.00  1.00  1.00  1.00  1.00
1.00  1.00  1.00  1.00  1.00  1.00  1.00  0.99  0.98  0.97  0.98  0.99  1.00  1.00  1.00  1.00  1.00  1.00  1.00  1.00  1.00  1.00  1.00  1.00  1.00
1.00  1.00  1.00  1.00  1.00  1.00  1.00  0.99  0.98  0.97  0.98  0.99  1.00  1.00  1.00  1.00  1.00  1.00  1.00  1.00  1.00  1.00  1.00  1.00  1.00
1.00  1.00  1.00  1.00  1.00  1.00  1.00  0.99  0.98  0.97  0.98  0.99  1.00  1.00  1.00  1.00  1.00  1.00  1.00  1.00  1.00  1.00  1.00  1.00  1.00
1.00  1.00  1.00  1.00  1.00  1.00  1.00  0.99  0.98  0.97  0.98  0.99  1.00  1.00  1.00  1.00  1.00  1.00  1.00  1.00  1.00  1.00  1.00  1.00  1.00
1.00  1.00  1.00  1.00  1.00  1.00  1.00  0.99  0.98  0.97  0.98  0.99  1.00  1.00  1.00  1.00  1.00  1.00  1.00  1.00  1.00  1.00  1.00  1.00  1.00
1.00  1.00  1.00  1.00  1.00  1.00  1.00  0.99  0.98  0.97  0.98  0.99  1.00  1.00  1.00  1.00  1.00  1.00  1.00  1.00  1.00  1.00  1.00  1.00  1.00
1.00  1.00  1.00  1.00  1.00  1.00  1.00  0.99  0.98  0.97  0.98  0.99  1.00  1.00  1.00  1.00  1.00  1.00  1.00  1.00  1.00  1.00  1.00  1.00  1.00
1.00  1.00  1.00  1.00  1.00  1.00  1.00  0.99  0.98  0.97  0.98  0.99  1.00  1.00  1.00  1.00  1.00  1.00  1.00  1.00  1.00  1.00  1.00  1.00  1.00
1.00  1.00  1.00  1.00  1.00  1.00  1.00  0.99  0.98  0.97  0.98  0.99  1.00  1.00  1.00  1.00  1.00  1.00  1.00  1.00  1.00  1.00  1.00  1.00  1.00
1.00  1.00  1.00  1.00  1.00  1.00  1.00  0.99  0.98  0.97  0.98  0.99  1.00  1.00  1.00  1.00  1.00  1.00  1.00  1.00  1.00  1.00  1.00  1.00  1.00
$beta by ik, ith
1.00  1.00  1.00  1.00  1.00  1.00  1.00  0.99  0.98  0.97  0.98  0.99  1.00  1.00  1.00  1.00  1.00  1.00  1.00  1.00  1.00  1.00  1.00  1.00  1.00
1.00  1.00  1.00  1.00  1.00  1.00  1.00  0.99  0.98  0.97  0.98  0.99  1.00  1.00  1.00  1.00  1.00  1.00  1.00  1.00  1.00  1.00  1.00  1.00  1.00
1.00  1.00  1.00  1.00  1.00  1.00  1.00  0.99  0.98  0.97  0.98  0.99  1.00  1.00  1.00  1.00  1.00  1.00  1.00  1.00  1.00  1.00  1.00  1.00  1.00
1.00  1.00  1.00  1.00  1.00  1.00  1.00  0.99  0.98  0.97  0.98  0.99  1.00  1.00  1.00  1.00  1.00  1.00  1.00  1.00  1.00  1.00  1.00  1.00  1.00
1.00  1.00  1.00  1.00  1.00  1.00  1.00  0.99  0.98  0.97  0.98  0.99  1.00  1.00  1.00  1.00  1.00  1.00  1.00  1.00  1.00  1.00  1.00  1.00  1.00
1.00  1.00  1.00  1.00  1.00  1.00  1.00  0.99  0.98  0.97  0.98  0.99  1.00  1.00  1.00  1.00  1.00  1.00  1.00  1.00  1.00  1.00  1.00  1.00  1.00
1.00  1.00  1.00  1.00  1.00  1.00  1.00  0.99  0.98  0.97  0.98  0.99  1.00  1.00  1.00  1.00  1.00  1.00  1.00  1.00  1.00  1.00  1.00  1.00  1.00
1.00  1.00  1.00  1.00  1.00  1.00  1.00  0.99  0.98  0.97  0.98  0.99  1.00  1.00  1.00  1.00  1.00  1.00  1.00  1.00  1.00  1.00  1.00  1.00  1.00
1.00  1.00  1.00  1.00  1.00  1.00  1.00  0.99  0.98  0.97  0.98  0.99  1.00  1.00  1.00  1.00  1.00  1.00  1.00  1.00  1.00  1.00  1.00  1.00  1.00
1.00  1.00  1.00  1.00  1.00  1.00  1.00  0.99  0.98  0.97  0.98  0.99  1.00  1.00  1.00  1.00  1.00  1.00  1.00  1.00  1.00  1.00  1.00  1.00  1.00
1.00  1.00  1.00  1.00  1.00  1.00  1.00  0.99  0.98  0.97  0.98  0.99  1.00  1.00  1.00  1.00  1.00  1.00  1.00  1.00  1.00  1.00  1.00  1.00  1.00
1.00  1.00  1.00  1.00  1.00  1.00  1.00  0.99  0.98  0.97  0.98  0.99  1.00  1.00  1.00  1.00  1.00  1.00  1.00  1.00  1.00  1.00  1.00  1.00  1.00
1.00  1.00  1.00  1.00  1.00  1.00  1.00  0.99  0.98  0.97  0.98  0.99  1.00  1.00  1.00  1.00  1.00  1.00  1.00  1.00  1.00  1.00  1.00  1.00  1.00
1.00  1.00  1.00  1.00  1.00  1.00  1.00  0.99  0.98  0.97  0.98  0.99  1.00  1.00  1.00  1.00  1.00  1.00  1.00  1.00  1.00  1.00  1.00  1.00  1.00
1.00  1.00  1.00  1.00  1.00  1.00  1.00  0.99  0.98  0.97  0.98  0.99  1.00  1.00  1.00  1.00  1.00  1.00  1.00  1.00  1.00  1.00  1.00  1.00  1.00
1.00  1.00  1.00  1.00  1.00  1.00  1.00  0.99  0.98  0.97  0.98  0.99  1.00  1.00  1.00  1.00  1.00  1.00  1.00  1.00  1.00  1.00  1.00  1.00  1.00
1.00  1.00  1.00  1.00  1.00  1.00  1.00  0.99  0.98  0.97  0.98  0.99  1.00  1.00  1.00  1.00  1.00  1.00  1.00  1.00  1.00  1.00  1.00  1.00  1.00
1.00  1.00  1.00  1.00  1.00  1.00  1.00  0.99  0.98  0.97  0.98  0.99  1.00  1.00  1.00  1.00  1.00  1.00  1.00  1.00  1.00  1.00  1.00  1.00  1.00
1.00  1.00  1.00  1.00  1.00  1.00  1.00  0.99  0.98  0.97  0.98  0.99  1.00  1.00  1.00  1.00  1.00  1.00  1.00  1.00  1.00  1.00  1.00  1.00  1.00
1.00  1.00  1.00  1.00  1.00  1.00  1.00  0.99  0.98  0.97  0.98  0.99  1.00  1.00  1.00  1.00  1.00  1.00  1.00  1.00  1.00  1.00  1.00  1.00  1.00
1.00  1.00  1.00  1.00  1.00  1.00  1.00  0.99  0.98  0.97  0.98  0.99  1.00  1.00  1.00  1.00  1.00  1.00  1.00  1.00  1.00  1.00  1.00  1.00  1.00
1.00  1.00  1.00  1.00  1.00  1.00  1.00  0.99  0.98  0.97  0.98  0.99  1.00  1.00  1.00  1.00  1.00  1.00  1.00  1.00  1.00  1.00  1.00  1.00  1.00
1.00  1.00  1.00  1.00  1.00  1.00  1.00  0.99  0.98  0.97  0.98  0.99  1.00  1.00  1.00  1.00  1.00  1.00  1.00  1.00  1.00  1.00  1.00  1.00  1.00
1.00  1.00  1.00  1.00  1.00  1.00  1.00  0.99  0.98  0.97  0.98  0.99  1.00  1.00  1.00  1.00  1.00  1.00  1.00  1.00  1.00  1.00  1.00  1.00  1.00
1.00  1.00  1.00  1.00  1.00  1.00  1.00  0.99  0.98  0.97  0.98  0.99  1.00  1.00  1.00  1.00  1.00  1.00  1.00  1.00  1.00  1.00  1.00  1.00  1.00
$ ilon ilat of the cell. lon: -94.5, 26.0
58   65
$ sizes of the cell in km
   150.103      168.069      191.379      224.389      201.709      184.121      166.792      184.121      201.709      224.389      191.379      168.069      150.103      168.069      191.379      224.389      201.709      184.121      166.792      184.121      201.709      224.389      191.379      168.069      150.103
$ mean alpha: 0.988799989008
$ mean beta: 0.988799989008
$alpha by ik, ith
1.00  1.00  1.00  1.00  1.00  1.00  1.00  1.00  1.00  1.00  1.00  1.00  1.00  1.00  1.00  1.00  1.00  1.00  1.00  0.97  0.94  0.91  0.94  0.97  1.00
1.00  1.00  1.00  1.00  1.00  1.00  1.00  1.00  1.00  1.00  1.00  1.00  1.00  1.00  1.00  1.00  1.00  1.00  1.00  0.97  0.94  0.91  0.94  0.97  1.00
1.00  1.00  1.00  1.00  1.00  1.00  1.00  1.00  1.00  1.00  1.00  1.00  1.00  1.00  1.00  1.00  1.00  1.00  1.00  0.97  0.94  0.91  0.94  0.97  1.00
1.00  1.00  1.00  1.00  1.00  1.00  1.00  1.00  1.00  1.00  1.00  1.00  1.00  1.00  1.00  1.00  1.00  1.00  1.00  0.97  0.94  0.91  0.94  0.97  1.00
1.00  1.00  1.00  1.00  1.00  1.00  1.00  1.00  1.00  1.00  1.00  1.00  1.00  1.00  1.00  1.00  1.00  1.00  1.00  0.97  0.94  0.91  0.94  0.97  1.00
1.00  1.00  1.00  1.00  1.00  1.00  1.00  1.00  1.00  1.00  1.00  1.00  1.00  1.00  1.00  1.00  1.00  1.00  1.00  0.97  0.94  0.91  0.94  0.97  1.00
1.00  1.00  1.00  1.00  1.00  1.00  1.00  1.00  1.00  1.00  1.00  1.00  1.00  1.00  1.00  1.00  1.00  1.00  1.00  0.97  0.94  0.91  0.94  0.97  1.00
1.00  1.00  1.00  1.00  1.00  1.00  1.00  1.00  1.00  1.00  1.00  1.00  1.00  1.00  1.00  1.00  1.00  1.00  1.00  0.97  0.94  0.91  0.94  0.97  1.00
1.00  1.00  1.00  1.00  1.00  1.00  1.00  1.00  1.00  1.00  1.00  1.00  1.00  1.00  1.00  1.00  1.00  1.00  1.00  0.97  0.94  0.91  0.94  0.97  1.00
1.00  1.00  1.00  1.00  1.00  1.00  1.00  1.00  1.00  1.00  1.00  1.00  1.00  1.00  1.00  1.00  1.00  1.00  1.00  0.97  0.94  0.91  0.94  0.97  1.00
1.00  1.00  1.00  1.00  1.00  1.00  1.00  1.00  1.00  1.00  1.00  1.00  1.00  1.00  1.00  1.00  1.00  1.00  1.00  0.97  0.94  0.91  0.94  0.97  1.00
1.00  1.00  1.00  1.00  1.00  1.00  1.00  1.00  1.00  1.00  1.00  1.00  1.00  1.00  1.00  1.00  1.00  1.00  1.00  0.97  0.94  0.91  0.94  0.97  1.00
1.00  1.00  1.00  1.00  1.00  1.00  1.00  1.00  1.00  1.00  1.00  1.00  1.00  1.00  1.00  1.00  1.00  1.00  1.00  0.97  0.94  0.91  0.94  0.97  1.00
1.00  1.00  1.00  1.00  1.00  1.00  1.00  1.00  1.00  1.00  1.00  1.00  1.00  1.00  1.00  1.00  1.00  1.00  1.00  0.97  0.94  0.91  0.94  0.97  1.00
1.00  1.00  1.00  1.00  1.00  1.00  1.00  1.00  1.00  1.00  1.00  1.00  1.00  1.00  1.00  1.00  1.00  1.00  1.00  0.97  0.94  0.91  0.94  0.97  1.00
1.00  1.00  1.00  1.00  1.00  1.00  1.00  1.00  1.00  1.00  1.00  1.00  1.00  1.00  1.00  1.00  1.00  1.00  1.00  0.97  0.94  0.91  0.94  0.97  1.00
1.00  1.00  1.00  1.00  1.00  1.00  1.00  1.00  1.00  1.00  1.00  1.00  1.00  1.00  1.00  1.00  1.00  1.00  1.00  0.97  0.94  0.91  0.94  0.97  1.00
1.00  1.00  1.00  1.00  1.00  1.00  1.00  1.00  1.00  1.00  1.00  1.00  1.00  1.00  1.00  1.00  1.00  1.00  1.00  0.97  0.94  0.91  0.94  0.97  1.00
1.00  1.00  1.00  1.00  1.00  1.00  1.00  1.00  1.00  1.00  1.00  1.00  1.00  1.00  1.00  1.00  1.00  1.00  1.00  0.97  0.94  0.91  0.94  0.97  1.00
1.00  1.00  1.00  1.00  1.00  1.00  1.00  1.00  1.00  1.00  1.00  1.00  1.00  1.00  1.00  1.00  1.00  1.00  1.00  0.97  0.94  0.91  0.94  0.97  1.00
1.00  1.00  1.00  1.00  1.00  1.00  1.00  1.00  1.00  1.00  1.00  1.00  1.00  1.00  1.00  1.00  1.00  1.00  1.00  0.97  0.94  0.91  0.94  0.97  1.00
1.00  1.00  1.00  1.00  1.00  1.00  1.00  1.00  1.00  1.00  1.00  1.00  1.00  1.00  1.00  1.00  1.00  1.00  1.00  0.97  0.94  0.91  0.94  0.97  1.00
1.00  1.00  1.00  1.00  1.00  1.00  1.00  1.00  1.00  1.00  1.00  1.00  1.00  1.00  1.00  1.00  1.00  1.00  1.00  0.97  0.94  0.91  0.94  0.97  1.00
1.00  1.00  1.00  1.00  1.00  1.00  1.00  1.00  1.00  1.00  1.00  1.00  1.00  1.00  1.00  1.00  1.00  1.00  1.00  0.97  0.94  0.91  0.94  0.97  1.00
1.00  1.00  1.00  1.00  1.00  1.00  1.00  1.00  1.00  1.00  1.00  1.00  1.00  1.00  1.00  1.00  1.00  1.00  1.00  0.97  0.94  0.91  0.94  0.97  1.00
$beta by ik, ith
1.00  1.00  1.00  1.00  1.00  1.00  1.00  1.00  1.00  1.00  1.00  1.00  1.00  1.00  1.00  1.00  1.00  1.00  1.00  0.97  0.94  0.91  0.94  0.97  1.00
1.00  1.00  1.00  1.00  1.00  1.00  1.00  1.00  1.00  1.00  1.00  1.00  1.00  1.00  1.00  1.00  1.00  1.00  1.00  0.97  0.94  0.91  0.94  0.97  1.00
1.00  1.00  1.00  1.00  1.00  1.00  1.00  1.00  1.00  1.00  1.00  1.00  1.00  1.00  1.00  1.00  1.00  1.00  1.00  0.97  0.94  0.91  0.94  0.97  1.00
1.00  1.00  1.00  1.00  1.00  1.00  1.00  1.00  1.00  1.00  1.00  1.00  1.00  1.00  1.00  1.00  1.00  1.00  1.00  0.97  0.94  0.91  0.94  0.97  1.00
1.00  1.00  1.00  1.00  1.00  1.00  1.00  1.00  1.00  1.00  1.00  1.00  1.00  1.00  1.00  1.00  1.00  1.00  1.00  0.97  0.94  0.91  0.94  0.97  1.00
1.00  1.00  1.00  1.00  1.00  1.00  1.00  1.00  1.00  1.00  1.00  1.00  1.00  1.00  1.00  1.00  1.00  1.00  1.00  0.97  0.94  0.91  0.94  0.97  1.00
1.00  1.00  1.00  1.00  1.00  1.00  1.00  1.00  1.00  1.00  1.00  1.00  1.00  1.00  1.00  1.00  1.00  1.00  1.00  0.97  0.94  0.91  0.94  0.97  1.00
1.00  1.00  1.00  1.00  1.00  1.00  1.00  1.00  1.00  1.00  1.00  1.00  1.00  1.00  1.00  1.00  1.00  1.00  1.00  0.97  0.94  0.91  0.94  0.97  1.00
1.00  1.00  1.00  1.00  1.00  1.00  1.00  1.00  1.00  1.00  1.00  1.00  1.00  1.00  1.00  1.00  1.00  1.00  1.00  0.97  0.94  0.91  0.94  0.97  1.00
1.00  1.00  1.00  1.00  1.00  1.00  1.00  1.00  1.00  1.00  1.00  1.00  1.00  1.00  1.00  1.00  1.00  1.00  1.00  0.97  0.94  0.91  0.94  0.97  1.00
1.00  1.00  1.00  1.00  1.00  1.00  1.00  1.00  1.00  1.00  1.00  1.00  1.00  1.00  1.00  1.00  1.00  1.00  1.00  0.97  0.94  0.91  0.94  0.97  1.00
1.00  1.00  1.00  1.00  1.00  1.00  1.00  1.00  1.00  1.00  1.00  1.00  1.00  1.00  1.00  1.00  1.00  1.00  1.00  0.97  0.94  0.91  0.94  0.97  1.00
1.00  1.00  1.00  1.00  1.00  1.00  1.00  1.00  1.00  1.00  1.00  1.00  1.00  1.00  1.00  1.00  1.00  1.00  1.00  0.97  0.94  0.91  0.94  0.97  1.00
1.00  1.00  1.00  1.00  1.00  1.00  1.00  1.00  1.00  1.00  1.00  1.00  1.00  1.00  1.00  1.00  1.00  1.00  1.00  0.97  0.94  0.91  0.94  0.97  1.00
1.00  1.00  1.00  1.00  1.00  1.00  1.00  1.00  1.00  1.00  1.00  1.00  1.00  1.00  1.00  1.00  1.00  1.00  1.00  0.97  0.94  0.91  0.94  0.97  1.00
1.00  1.00  1.00  1.00  1.00  1.00  1.00  1.00  1.00  1.00  1.00  1.00  1.00  1.00  1.00  1.00  1.00  1.00  1.00  0.97  0.94  0.91  0.94  0.97  1.00
1.00  1.00  1.00  1.00  1.00  1.00  1.00  1.00  1.00  1.00  1.00  1.00  1.00  1.00  1.00  1.00  1.00  1.00  1.00  0.97  0.94  0.91  0.94  0.97  1.00
1.00  1.00  1.00  1.00  1.00  1.00  1.00  1.00  1.00  1.00  1.00  1.00  1.00  1.00  1.00  1.00  1.00  1.00  1.00  0.97  0.94  0.91  0.94  0.97  1.00
1.00  1.00  1.00  1.00  1.00  1.00  1.00  1.00  1.00  1.00  1.00  1.00  1.00  1.00  1.00  1.00  1.00  1.00  1.00  0.97  0.94  0.91  0.94  0.97  1.00
1.00  1.00  1.00  1.00  1.00  1.00  1.00  1.00  1.00  1.00  1.00  1.00  1.00  1.00  1.00  1.00  1.00  1.00  1.00  0.97  0.94  0.91  0.94  0.97  1.00
1.00  1.00  1.00  1.00  1.00  1.00  1.00  1.00  1.00  1.00  1.00  1.00  1.00  1.00  1.00  1.00  1.00  1.00  1.00  0.97  0.94  0.91  0.94  0.97  1.00
1.00  1.00  1.00  1.00  1.00  1.00  1.00  1.00  1.00  1.00  1.00  1.00  1.00  1.00  1.00  1.00  1.00  1.00  1.00  0.97  0.94  0.91  0.94  0.97  1.00
1.00  1.00  1.00  1.00  1.00  1.00  1.00  1.00  1.00  1.00  1.00  1.00  1.00  1.00  1.00  1.00  1.00  1.00  1.00  0.97  0.94  0.91  0.94  0.97  1.00
1.00  1.00  1.00  1.00  1.00  1.00  1.00  1.00  1.00  1.00  1.00  1.00  1.00  1.00  1.00  1.00  1.00  1.00  1.00  0.97  0.94  0.91  0.94  0.97  1.00
1.00  1.00  1.00  1.00  1.00  1.00  1.00  1.00  1.00  1.00  1.00  1.00  1.00  1.00  1.00  1.00  1.00  1.00  1.00  0.97  0.94  0.91  0.94  0.97  1.00
$ ilon ilat of the cell. lon: -94.5, 27.5
58   66
$ sizes of the cell in km
   148.148      166.059      189.617      223.086      201.153      183.990      166.792      183.990      201.153      223.086      189.617      166.059      148.148      166.059      189.617      223.086      201.153      183.990      166.792      183.990      201.153      223.086      189.617      166.059      148.148
$ mean alpha: 0.92882819507
$ mean beta: 0.92882819507
$alpha by ik, ith
0.92  0.95  0.97  1.00  1.00  1.00  1.00  1.00  1.00  1.00  1.00  1.00  1.00  0.87  0.75  0.62  0.75  0.87  1.00  0.96  0.93  0.89  0.90  0.91  0.92
0.92  0.95  0.97  1.00  1.00  1.00  1.00  1.00  1.00  1.00  1.00  1.00  1.00  0.87  0.75  0.62  0.75  0.87  1.00  0.96  0.93  0.89  0.90  0.91  0.92
0.92  0.95  0.97  1.00  1.00  1.00  1.00  1.00  1.00  1.00  1.00  1.00  1.00  0.87  0.75  0.62  0.75  0.87  1.00  0.96  0.93  0.89  0.90  0.91  0.92
0.92  0.95  0.97  1.00  1.00  1.00  1.00  1.00  1.00  1.00  1.00  1.00  1.00  0.87  0.75  0.62  0.75  0.87  1.00  0.96  0.93  0.89  0.90  0.91  0.92
0.92  0.95  0.97  1.00  1.00  1.00  1.00  1.00  1.00  1.00  1.00  1.00  1.00  0.87  0.75  0.62  0.75  0.87  1.00  0.96  0.93  0.89  0.90  0.91  0.92
0.92  0.95  0.97  1.00  1.00  1.00  1.00  1.00  1.00  1.00  1.00  1.00  1.00  0.87  0.75  0.62  0.75  0.87  1.00  0.96  0.93  0.89  0.90  0.91  0.92
0.92  0.95  0.97  1.00  1.00  1.00  1.00  1.00  1.00  1.00  1.00  1.00  1.00  0.87  0.75  0.62  0.75  0.87  1.00  0.96  0.93  0.89  0.90  0.91  0.92
0.92  0.95  0.97  1.00  1.00  1.00  1.00  1.00  1.00  1.00  1.00  1.00  1.00  0.87  0.75  0.62  0.75  0.87  1.00  0.96  0.93  0.89  0.90  0.91  0.92
0.92  0.95  0.97  1.00  1.00  1.00  1.00  1.00  1.00  1.00  1.00  1.00  1.00  0.87  0.75  0.62  0.75  0.87  1.00  0.96  0.93  0.89  0.90  0.91  0.92
0.92  0.95  0.97  1.00  1.00  1.00  1.00  1.00  1.00  1.00  1.00  1.00  1.00  0.87  0.75  0.62  0.75  0.87  1.00  0.96  0.93  0.89  0.90  0.91  0.92
0.92  0.95  0.97  1.00  1.00  1.00  1.00  1.00  1.00  1.00  1.00  1.00  1.00  0.87  0.75  0.62  0.75  0.87  1.00  0.96  0.93  0.89  0.90  0.91  0.92
0.92  0.95  0.97  1.00  1.00  1.00  1.00  1.00  1.00  1.00  1.00  1.00  1.00  0.87  0.75  0.62  0.75  0.87  1.00  0.96  0.93  0.89  0.90  0.91  0.92
0.92  0.95  0.97  1.00  1.00  1.00  1.00  1.00  1.00  1.00  1.00  1.00  1.00  0.87  0.75  0.62  0.75  0.87  1.00  0.96  0.93  0.89  0.90  0.91  0.92
0.92  0.95  0.97  1.00  1.00  1.00  1.00  1.00  1.00  1.00  1.00  1.00  1.00  0.87  0.75  0.62  0.75  0.87  1.00  0.96  0.93  0.89  0.90  0.91  0.92
0.92  0.95  0.97  1.00  1.00  1.00  1.00  1.00  1.00  1.00  1.00  1.00  1.00  0.87  0.75  0.62  0.75  0.87  1.00  0.96  0.93  0.89  0.90  0.91  0.92
0.92  0.95  0.97  1.00  1.00  1.00  1.00  1.00  1.00  1.00  1.00  1.00  1.00  0.87  0.75  0.62  0.75  0.87  1.00  0.96  0.93  0.89  0.90  0.91  0.92
0.92  0.95  0.97  1.00  1.00  1.00  1.00  1.00  1.00  1.00  1.00  1.00  1.00  0.87  0.75  0.62  0.75  0.87  1.00  0.96  0.93  0.89  0.90  0.91  0.92
0.92  0.95  0.97  1.00  1.00  1.00  1.00  1.00  1.00  1.00  1.00  1.00  1.00  0.87  0.75  0.62  0.75  0.87  1.00  0.96  0.93  0.89  0.90  0.91  0.92
0.92  0.95  0.97  1.00  1.00  1.00  1.00  1.00  1.00  1.00  1.00  1.00  1.00  0.87  0.75  0.62  0.75  0.87  1.00  0.96  0.93  0.89  0.90  0.91  0.92
0.92  0.95  0.97  1.00  1.00  1.00  1.00  1.00  1.00  1.00  1.00  1.00  1.00  0.87  0.75  0.62  0.75  0.87  1.00  0.96  0.93  0.89  0.90  0.91  0.92
0.92  0.95  0.97  1.00  1.00  1.00  1.00  1.00  1.00  1.00  1.00  1.00  1.00  0.87  0.75  0.62  0.75  0.87  1.00  0.96  0.93  0.89  0.90  0.91  0.92
0.92  0.95  0.97  1.00  1.00  1.00  1.00  1.00  1.00  1.00  1.00  1.00  1.00  0.87  0.75  0.62  0.75  0.87  1.00  0.96  0.93  0.89  0.90  0.91  0.92
0.92  0.95  0.97  1.00  1.00  1.00  1.00  1.00  1.00  1.00  1.00  1.00  1.00  0.87  0.75  0.62  0.75  0.87  1.00  0.96  0.93  0.89  0.90  0.91  0.92
0.92  0.95  0.97  1.00  1.00  1.00  1.00  1.00  1.00  1.00  1.00  1.00  1.00  0.87  0.75  0.62  0.75  0.87  1.00  0.96  0.93  0.89  0.90  0.91  0.92
0.92  0.95  0.97  1.00  1.00  1.00  1.00  1.00  1.00  1.00  1.00  1.00  1.00  0.87  0.75  0.62  0.75  0.87  1.00  0.96  0.93  0.89  0.90  0.91  0.92
$beta by ik, ith
0.92  0.95  0.97  1.00  1.00  1.00  1.00  1.00  1.00  1.00  1.00  1.00  1.00  0.87  0.75  0.62  0.75  0.87  1.00  0.96  0.93  0.89  0.90  0.91  0.92
0.92  0.95  0.97  1.00  1.00  1.00  1.00  1.00  1.00  1.00  1.00  1.00  1.00  0.87  0.75  0.62  0.75  0.87  1.00  0.96  0.93  0.89  0.90  0.91  0.92
0.92  0.95  0.97  1.00  1.00  1.00  1.00  1.00  1.00  1.00  1.00  1.00  1.00  0.87  0.75  0.62  0.75  0.87  1.00  0.96  0.93  0.89  0.90  0.91  0.92
0.92  0.95  0.97  1.00  1.00  1.00  1.00  1.00  1.00  1.00  1.00  1.00  1.00  0.87  0.75  0.62  0.75  0.87  1.00  0.96  0.93  0.89  0.90  0.91  0.92
0.92  0.95  0.97  1.00  1.00  1.00  1.00  1.00  1.00  1.00  1.00  1.00  1.00  0.87  0.75  0.62  0.75  0.87  1.00  0.96  0.93  0.89  0.90  0.91  0.92
0.92  0.95  0.97  1.00  1.00  1.00  1.00  1.00  1.00  1.00  1.00  1.00  1.00  0.87  0.75  0.62  0.75  0.87  1.00  0.96  0.93  0.89  0.90  0.91  0.92
0.92  0.95  0.97  1.00  1.00  1.00  1.00  1.00  1.00  1.00  1.00  1.00  1.00  0.87  0.75  0.62  0.75  0.87  1.00  0.96  0.93  0.89  0.90  0.91  0.92
0.92  0.95  0.97  1.00  1.00  1.00  1.00  1.00  1.00  1.00  1.00  1.00  1.00  0.87  0.75  0.62  0.75  0.87  1.00  0.96  0.93  0.89  0.90  0.91  0.92
0.92  0.95  0.97  1.00  1.00  1.00  1.00  1.00  1.00  1.00  1.00  1.00  1.00  0.87  0.75  0.62  0.75  0.87  1.00  0.96  0.93  0.89  0.90  0.91  0.92
0.92  0.95  0.97  1.00  1.00  1.00  1.00  1.00  1.00  1.00  1.00  1.00  1.00  0.87  0.75  0.62  0.75  0.87  1.00  0.96  0.93  0.89  0.90  0.91  0.92
0.92  0.95  0.97  1.00  1.00  1.00  1.00  1.00  1.00  1.00  1.00  1.00  1.00  0.87  0.75  0.62  0.75  0.87  1.00  0.96  0.93  0.89  0.90  0.91  0.92
0.92  0.95  0.97  1.00  1.00  1.00  1.00  1.00  1.00  1.00  1.00  1.00  1.00  0.87  0.75  0.62  0.75  0.87  1.00  0.96  0.93  0.89  0.90  0.91  0.92
0.92  0.95  0.97  1.00  1.00  1.00  1.00  1.00  1.00  1.00  1.00  1.00  1.00  0.87  0.75  0.62  0.75  0.87  1.00  0.96  0.93  0.89  0.90  0.91  0.92
0.92  0.95  0.97  1.00  1.00  1.00  1.00  1.00  1.00  1.00  1.00  1.00  1.00  0.87  0.75  0.62  0.75  0.87  1.00  0.96  0.93  0.89  0.90  0.91  0.92
0.92  0.95  0.97  1.00  1.00  1.00  1.00  1.00  1.00  1.00  1.00  1.00  1.00  0.87  0.75  0.62  0.75  0.87  1.00  0.96  0.93  0.89  0.90  0.91  0.92
0.92  0.95  0.97  1.00  1.00  1.00  1.00  1.00  1.00  1.00  1.00  1.00  1.00  0.87  0.75  0.62  0.75  0.87  1.00  0.96  0.93  0.89  0.90  0.91  0.92
0.92  0.95  0.97  1.00  1.00  1.00  1.00  1.00  1.00  1.00  1.00  1.00  1.00  0.87  0.75  0.62  0.75  0.87  1.00  0.96  0.93  0.89  0.90  0.91  0.92
0.92  0.95  0.97  1.00  1.00  1.00  1.00  1.00  1.00  1.00  1.00  1.00  1.00  0.87  0.75  0.62  0.75  0.87  1.00  0.96  0.93  0.89  0.90  0.91  0.92
0.92  0.95  0.97  1.00  1.00  1.00  1.00  1.00  1.00  1.00  1.00  1.00  1.00  0.87  0.75  0.62  0.75  0.87  1.00  0.96  0.93  0.89  0.90  0.91  0.92
0.92  0.95  0.97  1.00  1.00  1.00  1.00  1.00  1.00  1.00  1.00  1.00  1.00  0.87  0.75  0.62  0.75  0.87  1.00  0.96  0.93  0.89  0.90  0.91  0.92
0.92  0.95  0.97  1.00  1.00  1.00  1.00  1.00  1.00  1.00  1.00  1.00  1.00  0.87  0.75  0.62  0.75  0.87  1.00  0.96  0.93  0.89  0.90  0.91  0.92
0.92  0.95  0.97  1.00  1.00  1.00  1.00  1.00  1.00  1.00  1.00  1.00  1.00  0.87  0.75  0.62  0.75  0.87  1.00  0.96  0.93  0.89  0.90  0.91  0.92
0.92  0.95  0.97  1.00  1.00  1.00  1.00  1.00  1.00  1.00  1.00  1.00  1.00  0.87  0.75  0.62  0.75  0.87  1.00  0.96  0.93  0.89  0.90  0.91  0.92
0.92  0.95  0.97  1.00  1.00  1.00  1.00  1.00  1.00  1.00  1.00  1.00  1.00  0.87  0.75  0.62  0.75  0.87  1.00  0.96  0.93  0.89  0.90  0.91  0.92
0.92  0.95  0.97  1.00  1.00  1.00  1.00  1.00  1.00  1.00  1.00  1.00  1.00  0.87  0.75  0.62  0.75  0.87  1.00  0.96  0.93  0.89  0.90  0.91  0.92
$ ilon ilat of the cell. lon: -93.0, 12.5
59   56
$ sizes of the cell in km
   162.933      181.307      203.104      233.167      205.495      185.020      166.792      185.020      205.495      233.167      203.104      181.307      162.933      181.307      203.104      233.167      205.495      185.020      166.792      185.020      205.495      233.167      203.104      181.307      162.933
$ mean alpha: 0.982400104498
$ mean beta: 0.982400104498
$alpha by ik, ith
1.00  1.00  1.00  1.00  1.00  1.00  1.00  1.00  1.00  1.00  1.00  1.00  1.00  1.00  1.00  1.00  0.95  0.90  0.85  0.90  0.95  1.00  1.00  1.00  1.00
1.00  1.00  1.00  1.00  1.00  1.00  1.00  1.00  1.00  1.00  1.00  1.00  1.00  1.00  1.00  1.00  0.95  0.90  0.85  0.90  0.95  1.00  1.00  1.00  1.00
1.00  1.00  1.00  1.00  1.00  1.00  1.00  1.00  1.00  1.00  1.00  1.00  1.00  1.00  1.00  1.00  0.95  0.90  0.85  0.90  0.95  1.00  1.00  1.00  1.00
1.00  1.00  1.00  1.00  1.00  1.00  1.00  1.00  1.00  1.00  1.00  1.00  1.00  1.00  1.00  1.00  0.95  0.90  0.85  0.90  0.95  1.00  1.00  1.00  1.00
1.00  1.00  1.00  1.00  1.00  1.00  1.00  1.00  1.00  1.00  1.00  1.00  1.00  1.00  1.00  1.00  0.95  0.90  0.85  0.90  0.95  1.00  1.00  1.00  1.00
1.00  1.00  1.00  1.00  1.00  1.00  1.00  1.00  1.00  1.00  1.00  1.00  1.00  1.00  1.00  1.00  0.95  0.90  0.85  0.90  0.95  1.00  1.00  1.00  1.00
1.00  1.00  1.00  1.00  1.00  1.00  1.00  1.00  1.00  1.00  1.00  1.00  1.00  1.00  1.00  1.00  0.95  0.90  0.85  0.90  0.95  1.00  1.00  1.00  1.00
1.00  1.00  1.00  1.00  1.00  1.00  1.00  1.00  1.00  1.00  1.00  1.00  1.00  1.00  1.00  1.00  0.95  0.90  0.85  0.90  0.95  1.00  1.00  1.00  1.00
1.00  1.00  1.00  1.00  1.00  1.00  1.00  1.00  1.00  1.00  1.00  1.00  1.00  1.00  1.00  1.00  0.95  0.90  0.85  0.90  0.95  1.00  1.00  1.00  1.00
1.00  1.00  1.00  1.00  1.00  1.00  1.00  1.00  1.00  1.00  1.00  1.00  1.00  1.00  1.00  1.00  0.95  0.90  0.85  0.90  0.95  1.00  1.00  1.00  1.00
1.00  1.00  1.00  1.00  1.00  1.00  1.00  1.00  1.00  1.00  1.00  1.00  1.00  1.00  1.00  1.00  0.95  0.90  0.85  0.90  0.95  1.00  1.00  1.00  1.00
1.00  1.00  1.00  1.00  1.00  1.00  1.00  1.00  1.00  1.00  1.00  1.00  1.00  1.00  1.00  1.00  0.95  0.90  0.85  0.90  0.95  1.00  1.00  1.00  1.00
1.00  1.00  1.00  1.00  1.00  1.00  1.00  1.00  1.00  1.00  1.00  1.00  1.00  1.00  1.00  1.00  0.95  0.90  0.85  0.90  0.95  1.00  1.00  1.00  1.00
1.00  1.00  1.00  1.00  1.00  1.00  1.00  1.00  1.00  1.00  1.00  1.00  1.00  1.00  1.00  1.00  0.95  0.90  0.85  0.90  0.95  1.00  1.00  1.00  1.00
1.00  1.00  1.00  1.00  1.00  1.00  1.00  1.00  1.00  1.00  1.00  1.00  1.00  1.00  1.00  1.00  0.95  0.90  0.85  0.90  0.95  1.00  1.00  1.00  1.00
1.00  1.00  1.00  1.00  1.00  1.00  1.00  1.00  1.00  1.00  1.00  1.00  1.00  1.00  1.00  1.00  0.95  0.90  0.85  0.90  0.95  1.00  1.00  1.00  1.00
1.00  1.00  1.00  1.00  1.00  1.00  1.00  1.00  1.00  1.00  1.00  1.00  1.00  1.00  1.00  1.00  0.95  0.90  0.85  0.90  0.95  1.00  1.00  1.00  1.00
1.00  1.00  1.00  1.00  1.00  1.00  1.00  1.00  1.00  1.00  1.00  1.00  1.00  1.00  1.00  1.00  0.95  0.90  0.85  0.90  0.95  1.00  1.00  1.00  1.00
1.00  1.00  1.00  1.00  1.00  1.00  1.00  1.00  1.00  1.00  1.00  1.00  1.00  1.00  1.00  1.00  0.95  0.90  0.85  0.90  0.95  1.00  1.00  1.00  1.00
1.00  1.00  1.00  1.00  1.00  1.00  1.00  1.00  1.00  1.00  1.00  1.00  1.00  1.00  1.00  1.00  0.95  0.90  0.85  0.90  0.95  1.00  1.00  1.00  1.00
1.00  1.00  1.00  1.00  1.00  1.00  1.00  1.00  1.00  1.00  1.00  1.00  1.00  1.00  1.00  1.00  0.95  0.90  0.85  0.90  0.95  1.00  1.00  1.00  1.00
1.00  1.00  1.00  1.00  1.00  1.00  1.00  1.00  1.00  1.00  1.00  1.00  1.00  1.00  1.00  1.00  0.95  0.90  0.85  0.90  0.95  1.00  1.00  1.00  1.00
1.00  1.00  1.00  1.00  1.00  1.00  1.00  1.00  1.00  1.00  1.00  1.00  1.00  1.00  1.00  1.00  0.95  0.90  0.85  0.90  0.95  1.00  1.00  1.00  1.00
1.00  1.00  1.00  1.00  1.00  1.00  1.00  1.00  1.00  1.00  1.00  1.00  1.00  1.00  1.00  1.00  0.95  0.90  0.85  0.90  0.95  1.00  1.00  1.00  1.00
1.00  1.00  1.00  1.00  1.00  1.00  1.00  1.00  1.00  1.00  1.00  1.00  1.00  1.00  1.00  1.00  0.95  0.90  0.85  0.90  0.95  1.00  1.00  1.00  1.00
$beta by ik, ith
1.00  1.00  1.00  1.00  1.00  1.00  1.00  1.00  1.00  1.00  1.00  1.00  1.00  1.00  1.00  1.00  0.95  0.90  0.85  0.90  0.95  1.00  1.00  1.00  1.00
1.00  1.00  1.00  1.00  1.00  1.00  1.00  1.00  1.00  1.00  1.00  1.00  1.00  1.00  1.00  1.00  0.95  0.90  0.85  0.90  0.95  1.00  1.00  1.00  1.00
1.00  1.00  1.00  1.00  1.00  1.00  1.00  1.00  1.00  1.00  1.00  1.00  1.00  1.00  1.00  1.00  0.95  0.90  0.85  0.90  0.95  1.00  1.00  1.00  1.00
1.00  1.00  1.00  1.00  1.00  1.00  1.00  1.00  1.00  1.00  1.00  1.00  1.00  1.00  1.00  1.00  0.95  0.90  0.85  0.90  0.95  1.00  1.00  1.00  1.00
1.00  1.00  1.00  1.00  1.00  1.00  1.00  1.00  1.00  1.00  1.00  1.00  1.00  1.00  1.00  1.00  0.95  0.90  0.85  0.90  0.95  1.00  1.00  1.00  1.00
1.00  1.00  1.00  1.00  1.00  1.00  1.00  1.00  1.00  1.00  1.00  1.00  1.00  1.00  1.00  1.00  0.95  0.90  0.85  0.90  0.95  1.00  1.00  1.00  1.00
1.00  1.00  1.00  1.00  1.00  1.00  1.00  1.00  1.00  1.00  1.00  1.00  1.00  1.00  1.00  1.00  0.95  0.90  0.85  0.90  0.95  1.00  1.00  1.00  1.00
1.00  1.00  1.00  1.00  1.00  1.00  1.00  1.00  1.00  1.00  1.00  1.00  1.00  1.00  1.00  1.00  0.95  0.90  0.85  0.90  0.95  1.00  1.00  1.00  1.00
1.00  1.00  1.00  1.00  1.00  1.00  1.00  1.00  1.00  1.00  1.00  1.00  1.00  1.00  1.00  1.00  0.95  0.90  0.85  0.90  0.95  1.00  1.00  1.00  1.00
1.00  1.00  1.00  1.00  1.00  1.00  1.00  1.00  1.00  1.00  1.00  1.00  1.00  1.00  1.00  1.00  0.95  0.90  0.85  0.90  0.95  1.00  1.00  1.00  1.00
1.00  1.00  1.00  1.00  1.00  1.00  1.00  1.00  1.00  1.00  1.00  1.00  1.00  1.00  1.00  1.00  0.95  0.90  0.85  0.90  0.95  1.00  1.00  1.00  1.00
1.00  1.00  1.00  1.00  1.00  1.00  1.00  1.00  1.00  1.00  1.00  1.00  1.00  1.00  1.00  1.00  0.95  0.90  0.85  0.90  0.95  1.00  1.00  1.00  1.00
1.00  1.00  1.00  1.00  1.00  1.00  1.00  1.00  1.00  1.00  1.00  1.00  1.00  1.00  1.00  1.00  0.95  0.90  0.85  0.90  0.95  1.00  1.00  1.00  1.00
1.00  1.00  1.00  1.00  1.00  1.00  1.00  1.00  1.00  1.00  1.00  1.00  1.00  1.00  1.00  1.00  0.95  0.90  0.85  0.90  0.95  1.00  1.00  1.00  1.00
1.00  1.00  1.00  1.00  1.00  1.00  1.00  1.00  1.00  1.00  1.00  1.00  1.00  1.00  1.00  1.00  0.95  0.90  0.85  0.90  0.95  1.00  1.00  1.00  1.00
1.00  1.00  1.00  1.00  1.00  1.00  1.00  1.00  1.00  1.00  1.00  1.00  1.00  1.00  1.00  1.00  0.95  0.90  0.85  0.90  0.95  1.00  1.00  1.00  1.00
1.00  1.00  1.00  1.00  1.00  1.00  1.00  1.00  1.00  1.00  1.00  1.00  1.00  1.00  1.00  1.00  0.95  0.90  0.85  0.90  0.95  1.00  1.00  1.00  1.00
1.00  1.00  1.00  1.00  1.00  1.00  1.00  1.00  1.00  1.00  1.00  1.00  1.00  1.00  1.00  1.00  0.95  0.90  0.85  0.90  0.95  1.00  1.00  1.00  1.00
1.00  1.00  1.00  1.00  1.00  1.00  1.00  1.00  1.00  1.00  1.00  1.00  1.00  1.00  1.00  1.00  0.95  0.90  0.85  0.90  0.95  1.00  1.00  1.00  1.00
1.00  1.00  1.00  1.00  1.00  1.00  1.00  1.00  1.00  1.00  1.00  1.00  1.00  1.00  1.00  1.00  0.95  0.90  0.85  0.90  0.95  1.00  1.00  1.00  1.00
1.00  1.00  1.00  1.00  1.00  1.00  1.00  1.00  1.00  1.00  1.00  1.00  1.00  1.00  1.00  1.00  0.95  0.90  0.85  0.90  0.95  1.00  1.00  1.00  1.00
1.00  1.00  1.00  1.00  1.00  1.00  1.00  1.00  1.00  1.00  1.00  1.00  1.00  1.00  1.00  1.00  0.95  0.90  0.85  0.90  0.95  1.00  1.00  1.00  1.00
1.00  1.00  1.00  1.00  1.00  1.00  1.00  1.00  1.00  1.00  1.00  1.00  1.00  1.00  1.00  1.00  0.95  0.90  0.85  0.90  0.95  1.00  1.00  1.00  1.00
1.00  1.00  1.00  1.00  1.00  1.00  1.00  1.00  1.00  1.00  1.00  1.00  1.00  1.00  1.00  1.00  0.95  0.90  0.85  0.90  0.95  1.00  1.00  1.00  1.00
1.00  1.00  1.00  1.00  1.00  1.00  1.00  1.00  1.00  1.00  1.00  1.00  1.00  1.00  1.00  1.00  0.95  0.90  0.85  0.90  0.95  1.00  1.00  1.00  1.00
$ ilon ilat of the cell. lon: -93.0, 20.0
59   61
$ sizes of the cell in km
   156.882      175.054      197.542      228.980      203.680      184.587      166.792      184.587      203.680      228.980      197.542      175.054      156.882      175.054      197.542      228.980      203.680      184.587      166.792      184.587      203.680      228.980      197.542      175.054      156.882
$ mean alpha: 0.979999951738
$ mean beta: 0.98398625791
$alpha by ik, ith
1.00  1.00  1.00  1.00  1.00  1.00  1.00  0.98  0.96  0.95  0.95  0.95  0.95  0.95  0.96  0.97  0.97  0.97  0.97  0.98  0.99  1.00  1.00  1.00  1.00
1.00  1.00  1.00  1.00  1.00  1.00  1.00  0.98  0.96  0.95  0.95  0.95  0.95  0.95  0.96  0.97  0.97  0.97  0.97  0.98  0.99  1.00  1.00  1.00  1.00
1.00  1.00  1.00  1.00  1.00  1.00  1.00  0.98  0.96  0.95  0.95  0.95  0.95  0.95  0.96  0.97  0.97  0.97  0.97  0.98  0.99  1.00  1.00  1.00  1.00
1.00  1.00  1.00  1.00  1.00  1.00  1.00  0.98  0.96  0.95  0.95  0.95  0.95  0.95  0.96  0.97  0.97  0.97  0.97  0.98  0.99  1.00  1.00  1.00  1.00
1.00  1.00  1.00  1.00  1.00  1.00  1.00  0.98  0.96  0.95  0.95  0.95  0.95  0.95  0.96  0.97  0.97  0.97  0.97  0.98  0.99  1.00  1.00  1.00  1.00
1.00  1.00  1.00  1.00  1.00  1.00  1.00  0.98  0.96  0.95  0.95  0.95  0.95  0.95  0.96  0.97  0.97  0.97  0.97  0.98  0.99  1.00  1.00  1.00  1.00
1.00  1.00  1.00  1.00  1.00  1.00  1.00  0.98  0.96  0.95  0.95  0.95  0.95  0.95  0.96  0.97  0.97  0.97  0.97  0.98  0.99  1.00  1.00  1.00  1.00
1.00  1.00  1.00  1.00  1.00  1.00  1.00  0.98  0.96  0.95  0.95  0.95  0.95  0.95  0.96  0.97  0.97  0.97  0.97  0.98  0.99  1.00  1.00  1.00  1.00
1.00  1.00  1.00  1.00  1.00  1.00  1.00  0.98  0.96  0.95  0.95  0.95  0.95  0.95  0.96  0.97  0.97  0.97  0.97  0.98  0.99  1.00  1.00  1.00  1.00
1.00  1.00  1.00  1.00  1.00  1.00  1.00  0.98  0.96  0.95  0.95  0.95  0.95  0.95  0.96  0.97  0.97  0.97  0.97  0.98  0.99  1.00  1.00  1.00  1.00
1.00  1.00  1.00  1.00  1.00  1.00  1.00  0.98  0.96  0.95  0.95  0.95  0.95  0.95  0.96  0.97  0.97  0.97  0.97  0.98  0.99  1.00  1.00  1.00  1.00
1.00  1.00  1.00  1.00  1.00  1.00  1.00  0.98  0.96  0.95  0.95  0.95  0.95  0.95  0.96  0.97  0.97  0.97  0.97  0.98  0.99  1.00  1.00  1.00  1.00
1.00  1.00  1.00  1.00  1.00  1.00  1.00  0.98  0.96  0.95  0.95  0.95  0.95  0.95  0.96  0.97  0.97  0.97  0.97  0.98  0.99  1.00  1.00  1.00  1.00
1.00  1.00  1.00  1.00  1.00  1.00  1.00  0.98  0.96  0.95  0.95  0.95  0.95  0.95  0.96  0.97  0.97  0.97  0.97  0.98  0.99  1.00  1.00  1.00  1.00
1.00  1.00  1.00  1.00  1.00  1.00  1.00  0.98  0.96  0.95  0.95  0.95  0.95  0.95  0.96  0.97  0.97  0.97  0.97  0.98  0.99  1.00  1.00  1.00  1.00
1.00  1.00  1.00  1.00  1.00  1.00  1.00  0.98  0.96  0.95  0.95  0.95  0.95  0.95  0.96  0.97  0.97  0.97  0.97  0.98  0.99  1.00  1.00  1.00  1.00
1.00  1.00  1.00  1.00  1.00  1.00  1.00  0.98  0.96  0.95  0.95  0.95  0.95  0.95  0.96  0.97  0.97  0.97  0.97  0.98  0.99  1.00  1.00  1.00  1.00
1.00  1.00  1.00  1.00  1.00  1.00  1.00  0.98  0.96  0.95  0.95  0.95  0.95  0.95  0.96  0.97  0.97  0.97  0.97  0.98  0.99  1.00  1.00  1.00  1.00
1.00  1.00  1.00  1.00  1.00  1.00  1.00  0.98  0.96  0.95  0.95  0.95  0.95  0.95  0.96  0.97  0.97  0.97  0.97  0.98  0.99  1.00  1.00  1.00  1.00
1.00  1.00  1.00  1.00  1.00  1.00  1.00  0.98  0.96  0.95  0.95  0.95  0.95  0.95  0.96  0.97  0.97  0.97  0.97  0.98  0.99  1.00  1.00  1.00  1.00
1.00  1.00  1.00  1.00  1.00  1.00  1.00  0.98  0.96  0.95  0.95  0.95  0.95  0.95  0.96  0.97  0.97  0.97  0.97  0.98  0.99  1.00  1.00  1.00  1.00
1.00  1.00  1.00  1.00  1.00  1.00  1.00  0.98  0.96  0.95  0.95  0.95  0.95  0.95  0.96  0.97  0.97  0.97  0.97  0.98  0.99  1.00  1.00  1.00  1.00
1.00  1.00  1.00  1.00  1.00  1.00  1.00  0.98  0.96  0.95  0.95  0.95  0.95  0.95  0.96  0.97  0.97  0.97  0.97  0.98  0.99  1.00  1.00  1.00  1.00
1.00  1.00  1.00  1.00  1.00  1.00  1.00  0.98  0.96  0.95  0.95  0.95  0.95  0.95  0.96  0.97  0.97  0.97  0.97  0.98  0.99  1.00  1.00  1.00  1.00
1.00  1.00  1.00  1.00  1.00  1.00  1.00  0.98  0.96  0.95  0.95  0.95  0.95  0.95  0.96  0.97  0.97  0.97  0.97  0.98  0.99  1.00  1.00  1.00  1.00
$beta by ik, ith
1.00  1.00  1.00  1.00  1.00  1.00  1.00  0.98  0.96  0.95  0.95  0.95  0.95  0.96  0.97  0.98  0.99  0.99  0.99  0.99  1.00  1.00  1.00  1.00  1.00
1.00  1.00  1.00  1.00  1.00  1.00  1.00  0.98  0.96  0.95  0.95  0.95  0.95  0.96  0.97  0.98  0.99  0.99  0.99  0.99  1.00  1.00  1.00  1.00  1.00
1.00  1.00  1.00  1.00  1.00  1.00  1.00  0.98  0.96  0.95  0.95  0.95  0.95  0.96  0.97  0.98  0.99  0.99  0.99  0.99  1.00  1.00  1.00  1.00  1.00
1.00  1.00  1.00  1.00  1.00  1.00  1.00  0.98  0.96  0.95  0.95  0.95  0.95  0.96  0.97  0.98  0.99  0.99  0.99  0.99  1.00  1.00  1.00  1.00  1.00
1.00  1.00  1.00  1.00  1.00  1.00  1.00  0.98  0.96  0.95  0.95  0.95  0.95  0.96  0.97  0.98  0.99  0.99  0.99  0.99  1.00  1.00  1.00  1.00  1.00
1.00  1.00  1.00  1.00  1.00  1.00  1.00  0.98  0.96  0.95  0.95  0.95  0.95  0.96  0.97  0.98  0.99  0.99  0.99  0.99  1.00  1.00  1.00  1.00  1.00
1.00  1.00  1.00  1.00  1.00  1.00  1.00  0.98  0.96  0.95  0.95  0.95  0.95  0.96  0.97  0.98  0.99  0.99  0.99  0.99  1.00  1.00  1.00  1.00  1.00
1.00  1.00  1.00  1.00  1.00  1.00  1.00  0.98  0.96  0.95  0.95  0.95  0.95  0.96  0.97  0.98  0.99  0.99  0.99  0.99  1.00  1.00  1.00  1.00  1.00
1.00  1.00  1.00  1.00  1.00  1.00  1.00  0.98  0.96  0.95  0.95  0.95  0.95  0.96  0.97  0.98  0.99  0.99  0.99  0.99  1.00  1.00  1.00  1.00  1.00
1.00  1.00  1.00  1.00  1.00  1.00  1.00  0.98  0.96  0.95  0.95  0.95  0.95  0.96  0.97  0.98  0.99  0.99  0.99  0.99  1.00  1.00  1.00  1.00  1.00
1.00  1.00  1.00  1.00  1.00  1.00  1.00  0.98  0.96  0.95  0.95  0.95  0.95  0.96  0.97  0.98  0.99  0.99  0.99  0.99  1.00  1.00  1.00  1.00  1.00
1.00  1.00  1.00  1.00  1.00  1.00  1.00  0.98  0.96  0.95  0.95  0.95  0.95  0.96  0.97  0.98  0.99  0.99  0.99  0.99  1.00  1.00  1.00  1.00  1.00
1.00  1.00  1.00  1.00  1.00  1.00  1.00  0.98  0.96  0.95  0.95  0.95  0.95  0.96  0.97  0.98  0.99  0.99  0.99  0.99  1.00  1.00  1.00  1.00  1.00
1.00  1.00  1.00  1.00  1.00  1.00  1.00  0.98  0.96  0.95  0.95  0.95  0.95  0.96  0.97  0.98  0.99  0.99  0.99  0.99  1.00  1.00  1.00  1.00  1.00
1.00  1.00  1.00  1.00  1.00  1.00  1.00  0.98  0.96  0.95  0.95  0.95  0.95  0.96  0.97  0.98  0.99  0.99  0.99  0.99  1.00  1.00  1.00  1.00  1.00
1.00  1.00  1.00  1.00  1.00  1.00  1.00  0.98  0.96  0.95  0.95  0.95  0.95  0.96  0.97  0.98  0.99  0.99  0.99  0.99  1.00  1.00  1.00  1.00  1.00
1.00  1.00  1.00  1.00  1.00  1.00  1.00  0.98  0.96  0.95  0.95  0.95  0.95  0.96  0.97  0.98  0.99  0.99  0.99  0.99  1.00  1.00  1.00  1.00  1.00
1.00  1.00  1.00  1.00  1.00  1.00  1.00  0.98  0.96  0.95  0.95  0.95  0.95  0.96  0.97  0.98  0.99  0.99  0.99  0.99  1.00  1.00  1.00  1.00  1.00
1.00  1.00  1.00  1.00  1.00  1.00  1.00  0.98  0.96  0.95  0.95  0.95  0.95  0.96  0.97  0.98  0.99  0.99  0.99  0.99  1.00  1.00  1.00  1.00  1.00
1.00  1.00  1.00  1.00  1.00  1.00  1.00  0.98  0.96  0.95  0.95  0.95  0.95  0.96  0.97  0.98  0.99  0.99  0.99  0.99  1.00  1.00  1.00  1.00  1.00
1.00  1.00  1.00  1.00  1.00  1.00  1.00  0.98  0.96  0.95  0.95  0.95  0.95  0.96  0.97  0.98  0.99  0.99  0.99  0.99  1.00  1.00  1.00  1.00  1.00
1.00  1.00  1.00  1.00  1.00  1.00  1.00  0.98  0.96  0.95  0.95  0.95  0.95  0.96  0.97  0.98  0.99  0.99  0.99  0.99  1.00  1.00  1.00  1.00  1.00
1.00  1.00  1.00  1.00  1.00  1.00  1.00  0.98  0.96  0.95  0.95  0.95  0.95  0.96  0.97  0.98  0.99  0.99  0.99  0.99  1.00  1.00  1.00  1.00  1.00
1.00  1.00  1.00  1.00  1.00  1.00  1.00  0.98  0.96  0.95  0.95  0.95  0.95  0.96  0.97  0.98  0.99  0.99  0.99  0.99  1.00  1.00  1.00  1.00  1.00
1.00  1.00  1.00  1.00  1.00  1.00  1.00  0.98  0.96  0.95  0.95  0.95  0.95  0.96  0.97  0.98  0.99  0.99  0.99  0.99  1.00  1.00  1.00  1.00  1.00
$ ilon ilat of the cell. lon: -93.0, 21.5
59   62
$ sizes of the cell in km
   155.346      173.469      196.139      227.930      203.227      184.480      166.792      184.480      203.227      227.930      196.139      173.469      155.346      173.469      196.139      227.930      203.227      184.480      166.792      184.480      203.227      227.930      196.139      173.469      155.346
$ mean alpha: 0.987200007876
$ mean beta: 0.991324184375
$alpha by ik, ith
[...]
1.00  0.98  0.95  0.93  0.95  0.98  1.00  1.00  1.00  1.00  1.00  1.00  1.00  1.00  1.00  1.00  1.00  1.00  1.00  1.00  1.00  1.00  1.00  1.00  1.00
1.00  0.98  0.95  0.93  0.95  0.98  1.00  1.00  1.00  1.00  1.00  1.00  1.00  1.00  1.00  1.00  1.00  1.00  1.00  1.00  1.00  1.00  1.00  1.00  1.00
$beta by ik, ith
1.00  0.98  0.96  0.94  0.96  0.98  1.00  1.00  1.00  1.00  1.00  1.00  1.00  1.00  1.00  1.00  1.00  1.00  1.00  1.00  1.00  1.00  1.00  1.00  1.00
1.00  0.98  0.96  0.94  0.96  0.98  1.00  1.00  1.00  1.00  1.00  1.00  1.00  1.00  1.00  1.00  1.00  1.00  1.00  1.00  1.00  1.00  1.00  1.00  1.00
1.00  0.98  0.96  0.94  0.96  0.98  1.00  1.00  1.00  1.00  1.00  1.00  1.00  1.00  1.00  1.00  1.00  1.00  1.00  1.00  1.00  1.00  1.00  1.00  1.00
1.00  0.98  0.96  0.94  0.96  0.98  1.00  1.00  1.00  1.00  1.00  1.00  1.00  1.00  1.00  1.00  1.00  1.00  1.00  1.00  1.00  1.00  1.00  1.00  1.00
1.00  0.98  0.96  0.94  0.96  0.98  1.00  1.00  1.00  1.00  1.00  1.00  1.00  1.00  1.00  1.00  1.00  1.00  1.00  1.00  1.00  1.00  1.00  1.00  1.00
1.00  0.98  0.96  0.94  0.96  0.98  1.00  1.00  1.00  1.00  1.00  1.00  1.00  1.00  1.00  1.00  1.00  1.00  1.00  1.00  1.00  1.00  1.00  1.00  1.00
1.00  0.98  0.96  0.94  0.96  0.98  1.00  1.00  1.00  1.00  1.00  1.00  1.00  1.00  1.00  1.00  1.00  1.00  1.00  1.00  1.00  1.00  1.00  1.00  1.00
1.00  0.98  0.96  0.94  0.96  0.98  1.00  1.00  1.00  1.00  1.00  1.00  1.00  1.00  1.00  1.00  1.00  1.00  1.00  1.00  1.00  1.00  1.00  1.00  1.00
1.00  0.98  0.96  0.94  0.96  0.98  1.00  1.00  1.00  1.00  1.00  1.00  1.00  1.00  1.00  1.00  1.00  1.00  1.00  1.00  1.00  1.00  1.00  1.00  1.00
1.00  0.98  0.96  0.94  0.96  0.98  1.00  1.00  1.00  1.00  1.00  1.00  1.00  1.00  1.00  1.00  1.00  1.00  1.00  1.00  1.00  1.00  1.00  1.00  1.00
1.00  0.98  0.96  0.94  0.96  0.98  1.00  1.00  1.00  1.00  1.00  1.00  1.00  1.00  1.00  1.00  1.00  1.00  1.00  1.00  1.00  1.00  1.00  1.00  1.00
1.00  0.98  0.96  0.94  0.96  0.98  1.00  1.00  1.00  1.00  1.00  1.00  1.00  1.00  1.00  1.00  1.00  1.00  1.00  1.00  1.00  1.00  1.00  1.00  1.00
1.00  0.98  0.96  0.94  0.96  0.98  1.00  1.00  1.00  1.00  1.00  1.00  1.00  1.00  1.00  1.00  1.00  1.00  1.00  1.00  1.00  1.00  1.00  1.00  1.00
1.00  0.98  0.96  0.94  0.96  0.98  1.00  1.00  1.00  1.00  1.00  1.00  1.00  1.00  1.00  1.00  1.00  1.00  1.00  1.00  1.00  1.00  1.00  1.00  1.00
1.00  0.98  0.96  0.94  0.96  0.98  1.00  1.00  1.00  1.00  1.00  1.00  1.00  1.00  1.00  1.00  1.00  1.00  1.00  1.00  1.00  1.00  1.00  1.00  1.00
1.00  0.98  0.96  0.94  0.96  0.98  1.00  1.00  1.00  1.00  1.00  1.00  1.00  1.00  1.00  1.00  1.00  1.00  1.00  1.00  1.00  1.00  1.00  1.00  1.00
1.00  0.98  0.96  0.94  0.96  0.98  1.00  1.00  1.00  1.00  1.00  1.00  1.00  1.00  1.00  1.00  1.00  1.00  1.00  1.00  1.00  1.00  1.00  1.00  1.00
1.00  0.98  0.96  0.94  0.96  0.98  1.00  1.00  1.00  1.00  1.00  1.00  1.00  1.00  1.00  1.00  1.00  1.00  1.00  1.00  1.00  1.00  1.00  1.00  1.00
1.00  0.98  0.96  0.94  0.96  0.98  1.00  1.00  1.00  1.00  1.00  1.00  1.00  1.00  1.00  1.00  1.00  1.00  1.00  1.00  1.00  1.00  1.00  1.00  1.00
1.00  0.98  0.96  0.94  0.96  0.98  1.00  1.00  1.00  1.00  1.00  1.00  1.00  1.00  1.00  1.00  1.00  1.00  1.00  1.00  1.00  1.00  1.00  1.00  1.00
1.00  0.98  0.96  0.94  0.96  0.98  1.00  1.00  1.00  1.00  1.00  1.00  1.00  1.00  1.00  1.00  1.00  1.00  1.00  1.00  1.00  1.00  1.00  1.00  1.00
1.00  0.98  0.96  0.94  0.96  0.98  1.00  1.00  1.00  1.00  1.00  1.00  1.00  1.00  1.00  1.00  1.00  1.00  1.00  1.00  1.00  1.00  1.00  1.00  1.00
1.00  0.98  0.96  0.94  0.96  0.98  1.00  1.00  1.00  1.00  1.00  1.00  1.00  1.00  1.00  1.00  1.00  1.00  1.00  1.00  1.00  1.00  1.00  1.00  1.00
1.00  0.98  0.96  0.94  0.96  0.98  1.00  1.00  1.00  1.00  1.00  1.00  1.00  1.00  1.00  1.00  1.00  1.00  1.00  1.00  1.00  1.00  1.00  1.00  1.00
1.00  0.98  0.96  0.94  0.96  0.98  1.00  1.00  1.00  1.00  1.00  1.00  1.00  1.00  1.00  1.00  1.00  1.00  1.00  1.00  1.00  1.00  1.00  1.00  1.00
$ ilon ilat of the cell. lon: -57.0, 8.0
83   53
$ sizes of the cell in km
   165.229      183.685      205.229      234.777      206.198      185.189      166.792      185.189      206.198      234.777      205.229      183.685      165.229      183.685      205.229      234.777      206.198      185.189      166.792      185.189      206.198      234.777      205.229      183.685      165.229
$ mean alpha: 0.926872265489
$ mean beta: 0.926872265489
$alpha by ik, ith
1.00  1.00  1.00  1.00  1.00  1.00  1.00  0.80  0.59  0.39  0.59  0.80  1.00  1.00  1.00  1.00  1.00  1.00  1.00  1.00  1.00  1.00  1.00  1.00  1.00
1.00  1.00  1.00  1.00  1.00  1.00  1.00  0.80  0.59  0.39  0.59  0.80  1.00  1.00  1.00  1.00  1.00  1.00  1.00  1.00  1.00  1.00  1.00  1.00  1.00
1.00  1.00  1.00  1.00  1.00  1.00  1.00  0.80  0.59  0.39  0.59  0.80  1.00  1.00  1.00  1.00  1.00  1.00  1.00  1.00  1.00  1.00  1.00  1.00  1.00
1.00  1.00  1.00  1.00  1.00  1.00  1.00  0.80  0.59  0.39  0.59  0.80  1.00  1.00  1.00  1.00  1.00  1.00  1.00  1.00  1.00  1.00  1.00  1.00  1.00
1.00  1.00  1.00  1.00  1.00  1.00  1.00  0.80  0.59  0.39  0.59  0.80  1.00  1.00  1.00  1.00  1.00  1.00  1.00  1.00  1.00  1.00  1.00  1.00  1.00
1.00  1.00  1.00  1.00  1.00  1.00  1.00  0.80  0.59  0.39  0.59  0.80  1.00  1.00  1.00  1.00  1.00  1.00  1.00  1.00  1.00  1.00  1.00  1.00  1.00
1.00  1.00  1.00  1.00  1.00  1.00  1.00  0.80  0.59  0.39  0.59  0.80  1.00  1.00  1.00  1.00  1.00  1.00  1.00  1.00  1.00  1.00  1.00  1.00  1.00
1.00  1.00  1.00  1.00  1.00  1.00  1.00  0.80  0.59  0.39  0.59  0.80  1.00  1.00  1.00  1.00  1.00  1.00  1.00  1.00  1.00  1.00  1.00  1.00  1.00
1.00  1.00  1.00  1.00  1.00  1.00  1.00  0.80  0.59  0.39  0.59  0.80  1.00  1.00  1.00  1.00  1.00  1.00  1.00  1.00  1.00  1.00  1.00  1.00  1.00
1.00  1.00  1.00  1.00  1.00  1.00  1.00  0.80  0.59  0.39  0.59  0.80  1.00  1.00  1.00  1.00  1.00  1.00  1.00  1.00  1.00  1.00  1.00  1.00  1.00
1.00  1.00  1.00  1.00  1.00  1.00  1.00  0.80  0.59  0.39  0.59  0.80  1.00  1.00  1.00  1.00  1.00  1.00  1.00  1.00  1.00  1.00  1.00  1.00  1.00
1.00  1.00  1.00  1.00  1.00  1.00  1.00  0.80  0.59  0.39  0.59  0.80  1.00  1.00  1.00  1.00  1.00  1.00  1.00  1.00  1.00  1.00  1.00  1.00  1.00
1.00  1.00  1.00  1.00  1.00  1.00  1.00  0.80  0.59  0.39  0.59  0.80  1.00  1.00  1.00  1.00  1.00  1.00  1.00  1.00  1.00  1.00  1.00  1.00  1.00
1.00  1.00  1.00  1.00  1.00  1.00  1.00  0.80  0.59  0.39  0.59  0.80  1.00  1.00  1.00  1.00  1.00  1.00  1.00  1.00  1.00  1.00  1.00  1.00  1.00
1.00  1.00  1.00  1.00  1.00  1.00  1.00  0.80  0.59  0.39  0.59  0.80  1.00  1.00  1.00  1.00  1.00  1.00  1.00  1.00  1.00  1.00  1.00  1.00  1.00
1.00  1.00  1.00  1.00  1.00  1.00  1.00  0.80  0.59  0.39  0.59  0.80  1.00  1.00  1.00  1.00  1.00  1.00  1.00  1.00  1.00  1.00  1.00  1.00  1.00
1.00  1.00  1.00  1.00  1.00  1.00  1.00  0.80  0.59  0.39  0.59  0.80  1.00  1.00  1.00  1.00  1.00  1.00  1.00  1.00  1.00  1.00  1.00  1.00  1.00
1.00  1.00  1.00  1.00  1.00  1.00  1.00  0.80  0.59  0.39  0.59  0.80  1.00  1.00  1.00  1.00  1.00  1.00  1.00  1.00  1.00  1.00  1.00  1.00  1.00
1.00  1.00  1.00  1.00  1.00  1.00  1.00  0.80  0.59  0.39  0.59  0.80  1.00  1.00  1.00  1.00  1.00  1.00  1.00  1.00  1.00  1.00  1.00  1.00  1.00
1.00  1.00  1.00  1.00  1.00  1.00  1.00  0.80  0.59  0.39  0.59  0.80  1.00  1.00  1.00  1.00  1.00  1.00  1.00  1.00  1.00  1.00  1.00  1.00  1.00
1.00  1.00  1.00  1.00  1.00  1.00  1.00  0.80  0.59  0.39  0.59  0.80  1.00  1.00  1.00  1.00  1.00  1.00  1.00  1.00  1.00  1.00  1.00  1.00  1.00
1.00  1.00  1.00  1.00  1.00  1.00  1.00  0.80  0.59  0.39  0.59  0.80  1.00  1.00  1.00  1.00  1.00  1.00  1.00  1.00  1.00  1.00  1.00  1.00  1.00
1.00  1.00  1.00  1.00  1.00  1.00  1.00  0.80  0.59  0.39  0.59  0.80  1.00  1.00  1.00  1.00  1.00  1.00  1.00  1.00  1.00  1.00  1.00  1.00  1.00
1.00  1.00  1.00  1.00  1.00  1.00  1.00  0.80  0.59  0.39  0.59  0.80  1.00  1.00  1.00  1.00  1.00  1.00  1.00  1.00  1.00  1.00  1.00  1.00  1.00
1.00  1.00  1.00  1.00  1.00  1.00  1.00  0.80  0.59  0.39  0.59  0.80  1.00  1.00  1.00  1.00  1.00  1.00  1.00  1.00  1.00  1.00  1.00  1.00  1.00
$beta by ik, ith
1.00  1.00  1.00  1.00  1.00  1.00  1.00  0.80  0.59  0.39  0.59  0.80  1.00  1.00  1.00  1.00  1.00  1.00  1.00  1.00  1.00  1.00  1.00  1.00  1.00
1.00  1.00  1.00  1.00  1.00  1.00  1.00  0.80  0.59  0.39  0.59  0.80  1.00  1.00  1.00  1.00  1.00  1.00  1.00  1.00  1.00  1.00  1.00  1.00  1.00
1.00  1.00  1.00  1.00  1.00  1.00  1.00  0.80  0.59  0.39  0.59  0.80  1.00  1.00  1.00  1.00  1.00  1.00  1.00  1.00  1.00  1.00  1.00  1.00  1.00
1.00  1.00  1.00  1.00  1.00  1.00  1.00  0.80  0.59  0.39  0.59  0.80  1.00  1.00  1.00  1.00  1.00  1.00  1.00  1.00  1.00  1.00  1.00  1.00  1.00
1.00  1.00  1.00  1.00  1.00  1.00  1.00  0.80  0.59  0.39  0.59  0.80  1.00  1.00  1.00  1.00  1.00  1.00  1.00  1.00  1.00  1.00  1.00  1.00  1.00
1.00  1.00  1.00  1.00  1.00  1.00  1.00  0.80  0.59  0.39  0.59  0.80  1.00  1.00  1.00  1.00  1.00  1.00  1.00  1.00  1.00  1.00  1.00  1.00  1.00
1.00  1.00  1.00  1.00  1.00  1.00  1.00  0.80  0.59  0.39  0.59  0.80  1.00  1.00  1.00  1.00  1.00  1.00  1.00  1.00  1.00  1.00  1.00  1.00  1.00
1.00  1.00  1.00  1.00  1.00  1.00  1.00  0.80  0.59  0.39  0.59  0.80  1.00  1.00  1.00  1.00  1.00  1.00  1.00  1.00  1.00  1.00  1.00  1.00  1.00
1.00  1.00  1.00  1.00  1.00  1.00  1.00  0.80  0.59  0.39  0.59  0.80  1.00  1.00  1.00  1.00  1.00  1.00  1.00  1.00  1.00  1.00  1.00  1.00  1.00
1.00  1.00  1.00  1.00  1.00  1.00  1.00  0.80  0.59  0.39  0.59  0.80  1.00  1.00  1.00  1.00  1.00  1.00  1.00  1.00  1.00  1.00  1.00  1.00  1.00
1.00  1.00  1.00  1.00  1.00  1.00  1.00  0.80  0.59  0.39  0.59  0.80  1.00  1.00  1.00  1.00  1.00  1.00  1.00  1.00  1.00  1.00  1.00  1.00  1.00
1.00  1.00  1.00  1.00  1.00  1.00  1.00  0.80  0.59  0.39  0.59  0.80  1.00  1.00  1.00  1.00  1.00  1.00  1.00  1.00  1.00  1.00  1.00  1.00  1.00
1.00  1.00  1.00  1.00  1.00  1.00  1.00  0.80  0.59  0.39  0.59  0.80  1.00  1.00  1.00  1.00  1.00  1.00  1.00  1.00  1.00  1.00  1.00  1.00  1.00
1.00  1.00  1.00  1.00  1.00  1.00  1.00  0.80  0.59  0.39  0.59  0.80  1.00  1.00  1.00  1.00  1.00  1.00  1.00  1.00  1.00  1.00  1.00  1.00  1.00
1.00  1.00  1.00  1.00  1.00  1.00  1.00  0.80  0.59  0.39  0.59  0.80  1.00  1.00  1.00  1.00  1.00  1.00  1.00  1.00  1.00  1.00  1.00  1.00  1.00
1.00  1.00  1.00  1.00  1.00  1.00  1.00  0.80  0.59  0.39  0.59  0.80  1.00  1.00  1.00  1.00  1.00  1.00  1.00  1.00  1.00  1.00  1.00  1.00  1.00
1.00  1.00  1.00  1.00  1.00  1.00  1.00  0.80  0.59  0.39  0.59  0.80  1.00  1.00  1.00  1.00  1.00  1.00  1.00  1.00  1.00  1.00  1.00  1.00  1.00
1.00  1.00  1.00  1.00  1.00  1.00  1.00  0.80  0.59  0.39  0.59  0.80  1.00  1.00  1.00  1.00  1.00  1.00  1.00  1.00  1.00  1.00  1.00  1.00  1.00
1.00  1.00  1.00  1.00  1.00  1.00  1.00  0.80  0.59  0.39  0.59  0.80  1.00  1.00  1.00  1.00  1.00  1.00  1.00  1.00  1.00  1.00  1.00  1.00  1.00
1.00  1.00  1.00  1.00  1.00  1.00  1.00  0.80  0.59  0.39  0.59  0.80  1.00  1.00  1.00  1.00  1.00  1.00  1.00  1.00  1.00  1.00  1.00  1.00  1.00
1.00  1.00  1.00  1.00  1.00  1.00  1.00  0.80  0.59  0.39  0.59  0.80  1.00  1.00  1.00  1.00  1.00  1.00  1.00  1.00  1.00  1.00  1.00  1.00  1.00
1.00  1.00  1.00  1.00  1.00  1.00  1.00  0.80  0.59  0.39  0.59  0.80  1.00  1.00  1.00  1.00  1.00  1.00  1.00  1.00  1.00  1.00  1.00  1.00  1.00
1.00  1.00  1.00  1.00  1.00  1.00  1.00  0.80  0.59  0.39  0.59  0.80  1.00  1.00  1.00  1.00  1.00  1.00  1.00  1.00  1.00  1.00  1.00  1.00  1.00
1.00  1.00  1.00  1.00  1.00  1.00  1.00  0.80  0.59  0.39  0.59  0.80  1.00  1.00  1.00  1.00  1.00  1.00  1.00  1.00  1.00  1.00  1.00  1.00  1.00
1.00  1.00  1.00  1.00  1.00  1.00  1.00  0.80  0.59  0.39  0.59  0.80  1.00  1.00  1.00  1.00  1.00  1.00  1.00  1.00  1.00  1.00  1.00  1.00  1.00
$ ilon ilat of the cell. lon: -55.5, 8.0
84   53
$ sizes of the cell in km
   165.229      183.685      205.229      234.777      206.198      185.189      166.792      185.189      206.198      234.777      205.229      183.685      165.229      183.685      205.229      234.777      206.198      185.189      166.792      185.189      206.198      234.777      205.229      183.685      165.229
$ mean alpha: 0.884254731616
$ mean beta: 0.884254731616
$alpha by ik, ith
1.00  1.00  1.00  1.00  0.69  0.37  0.06  0.37  0.67  0.97  0.98  0.99  1.00  1.00  1.00  1.00  1.00  1.00  1.00  1.00  1.00  1.00  1.00  1.00  1.00
1.00  1.00  1.00  1.00  0.69  0.37  0.06  0.37  0.67  0.97  0.98  0.99  1.00  1.00  1.00  1.00  1.00  1.00  1.00  1.00  1.00  1.00  1.00  1.00  1.00
1.00  1.00  1.00  1.00  0.69  0.37  0.06  0.37  0.67  0.97  0.98  0.99  1.00  1.00  1.00  1.00  1.00  1.00  1.00  1.00  1.00  1.00  1.00  1.00  1.00
1.00  1.00  1.00  1.00  0.69  0.37  0.06  0.37  0.67  0.97  0.98  0.99  1.00  1.00  1.00  1.00  1.00  1.00  1.00  1.00  1.00  1.00  1.00  1.00  1.00
1.00  1.00  1.00  1.00  0.69  0.37  0.06  0.37  0.67  0.97  0.98  0.99  1.00  1.00  1.00  1.00  1.00  1.00  1.00  1.00  1.00  1.00  1.00  1.00  1.00
1.00  1.00  1.00  1.00  0.69  0.37  0.06  0.37  0.67  0.97  0.98  0.99  1.00  1.00  1.00  1.00  1.00  1.00  1.00  1.00  1.00  1.00  1.00  1.00  1.00
1.00  1.00  1.00  1.00  0.69  0.37  0.06  0.37  0.67  0.97  0.98  0.99  1.00  1.00  1.00  1.00  1.00  1.00  1.00  1.00  1.00  1.00  1.00  1.00  1.00
1.00  1.00  1.00  1.00  0.69  0.37  0.06  0.37  0.67  0.97  0.98  0.99  1.00  1.00  1.00  1.00  1.00  1.00  1.00  1.00  1.00  1.00  1.00  1.00  1.00
1.00  1.00  1.00  1.00  0.69  0.37  0.06  0.37  0.67  0.97  0.98  0.99  1.00  1.00  1.00  1.00  1.00  1.00  1.00  1.00  1.00  1.00  1.00  1.00  1.00
1.00  1.00  1.00  1.00  0.69  0.37  0.06  0.37  0.67  0.97  0.98  0.99  1.00  1.00  1.00  1.00  1.00  1.00  1.00  1.00  1.00  1.00  1.00  1.00  1.00
1.00  1.00  1.00  1.00  0.69  0.37  0.06  0.37  0.67  0.97  0.98  0.99  1.00  1.00  1.00  1.00  1.00  1.00  1.00  1.00  1.00  1.00  1.00  1.00  1.00
1.00  1.00  1.00  1.00  0.69  0.37  0.06  0.37  0.67  0.97  0.98  0.99  1.00  1.00  1.00  1.00  1.00  1.00  1.00  1.00  1.00  1.00  1.00  1.00  1.00
1.00  1.00  1.00  1.00  0.69  0.37  0.06  0.37  0.67  0.97  0.98  0.99  1.00  1.00  1.00  1.00  1.00  1.00  1.00  1.00  1.00  1.00  1.00  1.00  1.00
1.00  1.00  1.00  1.00  0.69  0.37  0.06  0.37  0.67  0.97  0.98  0.99  1.00  1.00  1.00  1.00  1.00  1.00  1.00  1.00  1.00  1.00  1.00  1.00  1.00
1.00  1.00  1.00  1.00  0.69  0.37  0.06  0.37  0.67  0.97  0.98  0.99  1.00  1.00  1.00  1.00  1.00  1.00  1.00  1.00  1.00  1.00  1.00  1.00  1.00
1.00  1.00  1.00  1.00  0.69  0.37  0.06  0.37  0.67  0.97  0.98  0.99  1.00  1.00  1.00  1.00  1.00  1.00  1.00  1.00  1.00  1.00  1.00  1.00  1.00
1.00  1.00  1.00  1.00  0.69  0.37  0.06  0.37  0.67  0.97  0.98  0.99  1.00  1.00  1.00  1.00  1.00  1.00  1.00  1.00  1.00  1.00  1.00  1.00  1.00
1.00  1.00  1.00  1.00  0.69  0.37  0.06  0.37  0.67  0.97  0.98  0.99  1.00  1.00  1.00  1.00  1.00  1.00  1.00  1.00  1.00  1.00  1.00  1.00  1.00
1.00  1.00  1.00  1.00  0.69  0.37  0.06  0.37  0.67  0.97  0.98  0.99  1.00  1.00  1.00  1.00  1.00  1.00  1.00  1.00  1.00  1.00  1.00  1.00  1.00
1.00  1.00  1.00  1.00  0.69  0.37  0.06  0.37  0.67  0.97  0.98  0.99  1.00  1.00  1.00  1.00  1.00  1.00  1.00  1.00  1.00  1.00  1.00  1.00  1.00
1.00  1.00  1.00  1.00  0.69  0.37  0.06  0.37  0.67  0.97  0.98  0.99  1.00  1.00  1.00  1.00  1.00  1.00  1.00  1.00  1.00  1.00  1.00  1.00  1.00
1.00  1.00  1.00  1.00  0.69  0.37  0.06  0.37  0.67  0.97  0.98  0.99  1.00  1.00  1.00  1.00  1.00  1.00  1.00  1.00  1.00  1.00  1.00  1.00  1.00
1.00  1.00  1.00  1.00  0.69  0.37  0.06  0.37  0.67  0.97  0.98  0.99  1.00  1.00  1.00  1.00  1.00  1.00  1.00  1.00  1.00  1.00  1.00  1.00  1.00
1.00  1.00  1.00  1.00  0.69  0.37  0.06  0.37  0.67  0.97  0.98  0.99  1.00  1.00  1.00  1.00  1.00  1.00  1.00  1.00  1.00  1.00  1.00  1.00  1.00
1.00  1.00  1.00  1.00  0.69  0.37  0.06  0.37  0.67  0.97  0.98  0.99  1.00  1.00  1.00  1.00  1.00  1.00  1.00  1.00  1.00  1.00  1.00  1.00  1.00
$beta by ik, ith
1.00  1.00  1.00  1.00  0.69  0.37  0.06  0.37  0.67  0.97  0.98  0.99  1.00  1.00  1.00  1.00  1.00  1.00  1.00  1.00  1.00  1.00  1.00  1.00  1.00
1.00  1.00  1.00  1.00  0.69  0.37  0.06  0.37  0.67  0.97  0.98  0.99  1.00  1.00  1.00  1.00  1.00  1.00  1.00  1.00  1.00  1.00  1.00  1.00  1.00
1.00  1.00  1.00  1.00  0.69  0.37  0.06  0.37  0.67  0.97  0.98  0.99  1.00  1.00  1.00  1.00  1.00  1.00  1.00  1.00  1.00  1.00  1.00  1.00  1.00
1.00  1.00  1.00  1.00  0.69  0.37  0.06  0.37  0.67  0.97  0.98  0.99  1.00  1.00  1.00  1.00  1.00  1.00  1.00  1.00  1.00  1.00  1.00  1.00  1.00
1.00  1.00  1.00  1.00  0.69  0.37  0.06  0.37  0.67  0.97  0.98  0.99  1.00  1.00  1.00  1.00  1.00  1.00  1.00  1.00  1.00  1.00  1.00  1.00  1.00
1.00  1.00  1.00  1.00  0.69  0.37  0.06  0.37  0.67  0.97  0.98  0.99  1.00  1.00  1.00  1.00  1.00  1.00  1.00  1.00  1.00  1.00  1.00  1.00  1.00
1.00  1.00  1.00  1.00  0.69  0.37  0.06  0.37  0.67  0.97  0.98  0.99  1.00  1.00  1.00  1.00  1.00  1.00  1.00  1.00  1.00  1.00  1.00  1.00  1.00
1.00  1.00  1.00  1.00  0.69  0.37  0.06  0.37  0.67  0.97  0.98  0.99  1.00  1.00  1.00  1.00  1.00  1.00  1.00  1.00  1.00  1.00  1.00  1.00  1.00
1.00  1.00  1.00  1.00  0.69  0.37  0.06  0.37  0.67  0.97  0.98  0.99  1.00  1.00  1.00  1.00  1.00  1.00  1.00  1.00  1.00  1.00  1.00  1.00  1.00
1.00  1.00  1.00  1.00  0.69  0.37  0.06  0.37  0.67  0.97  0.98  0.99  1.00  1.00  1.00  1.00  1.00  1.00  1.00  1.00  1.00  1.00  1.00  1.00  1.00
1.00  1.00  1.00  1.00  0.69  0.37  0.06  0.37  0.67  0.97  0.98  0.99  1.00  1.00  1.00  1.00  1.00  1.00  1.00  1.00  1.00  1.00  1.00  1.00  1.00
1.00  1.00  1.00  1.00  0.69  0.37  0.06  0.37  0.67  0.97  0.98  0.99  1.00  1.00  1.00  1.00  1.00  1.00  1.00  1.00  1.00  1.00  1.00  1.00  1.00
1.00  1.00  1.00  1.00  0.69  0.37  0.06  0.37  0.67  0.97  0.98  0.99  1.00  1.00  1.00  1.00  1.00  1.00  1.00  1.00  1.00  1.00  1.00  1.00  1.00
1.00  1.00  1.00  1.00  0.69  0.37  0.06  0.37  0.67  0.97  0.98  0.99  1.00  1.00  1.00  1.00  1.00  1.00  1.00  1.00  1.00  1.00  1.00  1.00  1.00
1.00  1.00  1.00  1.00  0.69  0.37  0.06  0.37  0.67  0.97  0.98  0.99  1.00  1.00  1.00  1.00  1.00  1.00  1.00  1.00  1.00  1.00  1.00  1.00  1.00
1.00  1.00  1.00  1.00  0.69  0.37  0.06  0.37  0.67  0.97  0.98  0.99  1.00  1.00  1.00  1.00  1.00  1.00  1.00  1.00  1.00  1.00  1.00  1.00  1.00
1.00  1.00  1.00  1.00  0.69  0.37  0.06  0.37  0.67  0.97  0.98  0.99  1.00  1.00  1.00  1.00  1.00  1.00  1.00  1.00  1.00  1.00  1.00  1.00  1.00
1.00  1.00  1.00  1.00  0.69  0.37  0.06  0.37  0.67  0.97  0.98  0.99  1.00  1.00  1.00  1.00  1.00  1.00  1.00  1.00  1.00  1.00  1.00  1.00  1.00
1.00  1.00  1.00  1.00  0.69  0.37  0.06  0.37  0.67  0.97  0.98  0.99  1.00  1.00  1.00  1.00  1.00  1.00  1.00  1.00  1.00  1.00  1.00  1.00  1.00
1.00  1.00  1.00  1.00  0.69  0.37  0.06  0.37  0.67  0.97  0.98  0.99  1.00  1.00  1.00  1.00  1.00  1.00  1.00  1.00  1.00  1.00  1.00  1.00  1.00
1.00  1.00  1.00  1.00  0.69  0.37  0.06  0.37  0.67  0.97  0.98  0.99  1.00  1.00  1.00  1.00  1.00  1.00  1.00  1.00  1.00  1.00  1.00  1.00  1.00
1.00  1.00  1.00  1.00  0.69  0.37  0.06  0.37  0.67  0.97  0.98  0.99  1.00  1.00  1.00  1.00  1.00  1.00  1.00  1.00  1.00  1.00  1.00  1.00  1.00
1.00  1.00  1.00  1.00  0.69  0.37  0.06  0.37  0.67  0.97  0.98  0.99  1.00  1.00  1.00  1.00  1.00  1.00  1.00  1.00  1.00  1.00  1.00  1.00  1.00
1.00  1.00  1.00  1.00  0.69  0.37  0.06  0.37  0.67  0.97  0.98  0.99  1.00  1.00  1.00  1.00  1.00  1.00  1.00  1.00  1.00  1.00  1.00  1.00  1.00
1.00  1.00  1.00  1.00  0.69  0.37  0.06  0.37  0.67  0.97  0.98  0.99  1.00  1.00  1.00  1.00  1.00  1.00  1.00  1.00  1.00  1.00  1.00  1.00  1.00
